<?xml version="1.0" encoding="UTF-8"?>

<!-- generated on Thu Sep 20 05:43:18 2018 by SUMO duarouter Version UNKNOWN
<configuration xmlns:xsi="http://www.w3.org/2001/XMLSchema-instance" xsi:noNamespaceSchemaLocation="http://sumo.dlr.de/xsd/duarouterConfiguration.xsd">

    <input>
        <net-file value="test.net.xml"/>
        <route-files value="trips.trips.xml"/>
    </input>

    <output>
        <output-file value="temp0.rou.xml"/>
        <alternatives-output value="temp0.rou.alt.xml"/>
    </output>

    <processing>
        <ignore-errors value="true"/>
    </processing>

    <time>
        <begin value="0"/>
        <end value="0.1"/>
    </time>

    <report>
        <no-warnings value="true"/>
        <no-step-log value="true"/>
    </report>

</configuration>
-->

<routes xmlns:xsi="http://www.w3.org/2001/XMLSchema-instance" xsi:noNamespaceSchemaLocation="http://sumo.dlr.de/xsd/routes_file.xsd">
    <vType id="DefaultCar" speedFactor="normc(1,0.15)"/>
    <vType id="EgoCar" color="0,1,0"/>
<vehicle id="ego" depart="0.00" departLane="random" departPos="base" departSpeed="max" type="EgoCar">
        <route edges="-gneE2 -gneE0"/>
    </vehicle>
    <vehicle id="1" depart="0.00" departLane="best" departPos="random_free" departSpeed="max" type="DefaultCar">
        <route edges="-gneE3 -gneE0"/>
    </vehicle>
    <vehicle id="2" depart="0.00" departLane="best" departPos="random_free" departSpeed="max" type="DefaultCar">
        <route edges="gneE0 gneE1"/>
    </vehicle>
    <vehicle id="3" depart="0.00" departLane="best" departPos="random_free" departSpeed="max" type="DefaultCar">
        <route edges="-gneE2 gneE1"/>
    </vehicle>
    <vehicle id="4" depart="0.00" departLane="best" departPos="random_free" departSpeed="max" type="DefaultCar">
        <route edges="gneE0 gneE2"/>
    </vehicle>
    <vehicle id="5" depart="0.00" departLane="best" departPos="random_free" departSpeed="max" type="DefaultCar">
        <route edges="-gneE2 -gneE0"/>
    </vehicle>
    <vehicle id="6" depart="0.00" departLane="best" departPos="random_free" departSpeed="max" type="DefaultCar">
        <route edges="-gneE3 gneE2"/>
    </vehicle>
    <vehicle id="8" depart="0.00" departLane="best" departPos="random_free" departSpeed="max" type="DefaultCar">
        <route edges="-gneE1 -gneE0"/>
    </vehicle>
    <vehicle id="9" depart="0.01" departLane="best" departPos="random_free" departSpeed="max" type="DefaultCar">
        <route edges="gneE0 gneE2"/>
    </vehicle>
    <vehicle id="10" depart="0.01" departLane="best" departPos="random_free" departSpeed="max" type="DefaultCar">
        <route edges="-gneE2 -gneE0"/>
    </vehicle>
    <vehicle id="11" depart="0.01" departLane="best" departPos="random_free" departSpeed="max" type="DefaultCar">
        <route edges="-gneE2 -gneE0"/>
    </vehicle>
    <vehicle id="12" depart="0.01" departLane="best" departPos="random_free" departSpeed="max" type="DefaultCar">
        <route edges="gneE0 gneE1"/>
    </vehicle>
    <vehicle id="13" depart="0.01" departLane="best" departPos="random_free" departSpeed="max" type="DefaultCar">
        <route edges="gneE0 gneE3"/>
    </vehicle>
    <vehicle id="14" depart="0.01" departLane="best" departPos="random_free" departSpeed="max" type="DefaultCar">
        <route edges="gneE0 gneE1"/>
    </vehicle>
    <vehicle id="18" depart="0.01" departLane="best" departPos="random_free" departSpeed="max" type="DefaultCar">
        <route edges="gneE0 gneE3"/>
    </vehicle>
    <vehicle id="19" depart="0.01" departLane="best" departPos="random_free" departSpeed="max" type="DefaultCar">
        <route edges="-gneE2 gneE3"/>
    </vehicle>
    <vehicle id="20" depart="0.01" departLane="best" departPos="random_free" departSpeed="max" type="DefaultCar">
        <route edges="-gneE1 gneE3"/>
    </vehicle>
    <vehicle id="21" depart="0.01" departLane="best" departPos="random_free" departSpeed="max" type="DefaultCar">
        <route edges="-gneE1 gneE3"/>
    </vehicle>
    <vehicle id="22" depart="0.01" departLane="best" departPos="random_free" departSpeed="max" type="DefaultCar">
        <route edges="gneE0 gneE2"/>
    </vehicle>
    <vehicle id="24" depart="0.01" departLane="best" departPos="random_free" departSpeed="max" type="DefaultCar">
        <route edges="-gneE2 gneE1"/>
    </vehicle>
    <vehicle id="25" depart="0.01" departLane="best" departPos="random_free" departSpeed="max" type="DefaultCar">
        <route edges="-gneE1 gneE3"/>
    </vehicle>
    <vehicle id="29" depart="0.02" departLane="best" departPos="random_free" departSpeed="max" type="DefaultCar">
        <route edges="gneE0 gneE2"/>
    </vehicle>
    <vehicle id="30" depart="0.02" departLane="best" departPos="random_free" departSpeed="max" type="DefaultCar">
        <route edges="-gneE2 gneE3"/>
    </vehicle>
    <vehicle id="31" depart="0.02" departLane="best" departPos="random_free" departSpeed="max" type="DefaultCar">
        <route edges="-gneE2 gneE1"/>
    </vehicle>
    <vehicle id="33" depart="0.02" departLane="best" departPos="random_free" departSpeed="max" type="DefaultCar">
        <route edges="-gneE3 gneE1"/>
    </vehicle>
    <vehicle id="34" depart="0.02" departLane="best" departPos="random_free" departSpeed="max" type="DefaultCar">
        <route edges="-gneE3 gneE1"/>
    </vehicle>
    <vehicle id="35" depart="0.02" departLane="best" departPos="random_free" departSpeed="max" type="DefaultCar">
        <route edges="-gneE3 gneE1"/>
    </vehicle>
    <vehicle id="36" depart="0.02" departLane="best" departPos="random_free" departSpeed="max" type="DefaultCar">
        <route edges="gneE0 gneE2"/>
    </vehicle>
    <vehicle id="37" depart="0.02" departLane="best" departPos="random_free" departSpeed="max" type="DefaultCar">
        <route edges="gneE0 gneE2"/>
    </vehicle>
    <vehicle id="38" depart="0.02" departLane="best" departPos="random_free" departSpeed="max" type="DefaultCar">
        <route edges="-gneE3 -gneE0"/>
    </vehicle>
    <vehicle id="39" depart="0.02" departLane="best" departPos="random_free" departSpeed="max" type="DefaultCar">
        <route edges="-gneE3 gneE2"/>
    </vehicle>
    <vehicle id="40" depart="0.02" departLane="best" departPos="random_free" departSpeed="max" type="DefaultCar">
        <route edges="gneE0 gneE2"/>
    </vehicle>
    <vehicle id="41" depart="0.02" departLane="best" departPos="random_free" departSpeed="max" type="DefaultCar">
        <route edges="-gneE3 -gneE0"/>
    </vehicle>
    <vehicle id="43" depart="0.03" departLane="best" departPos="random_free" departSpeed="max" type="DefaultCar">
        <route edges="-gneE3 -gneE0"/>
    </vehicle>
    <vehicle id="45" depart="0.03" departLane="best" departPos="random_free" departSpeed="max" type="DefaultCar">
        <route edges="-gneE1 -gneE0"/>
    </vehicle>
    <vehicle id="46" depart="0.03" departLane="best" departPos="random_free" departSpeed="max" type="DefaultCar">
        <route edges="-gneE1 gneE2"/>
    </vehicle>
    <vehicle id="47" depart="0.03" departLane="best" departPos="random_free" departSpeed="max" type="DefaultCar">
        <route edges="gneE0 gneE2"/>
    </vehicle>
    <vehicle id="48" depart="0.03" departLane="best" departPos="random_free" departSpeed="max" type="DefaultCar">
        <route edges="gneE0 gneE2"/>
    </vehicle>
    <vehicle id="49" depart="0.03" departLane="best" departPos="random_free" departSpeed="max" type="DefaultCar">
        <route edges="-gneE1 gneE3"/>
    </vehicle>
    <vehicle id="50" depart="0.03" departLane="best" departPos="random_free" departSpeed="max" type="DefaultCar">
        <route edges="-gneE3 gneE2"/>
    </vehicle>
    <vehicle id="51" depart="0.03" departLane="best" departPos="random_free" departSpeed="max" type="DefaultCar">
        <route edges="-gneE1 gneE2"/>
    </vehicle>
    <vehicle id="52" depart="0.03" departLane="best" departPos="random_free" departSpeed="max" type="DefaultCar">
        <route edges="-gneE3 -gneE0"/>
    </vehicle>
    <vehicle id="54" depart="0.03" departLane="best" departPos="random_free" departSpeed="max" type="DefaultCar">
        <route edges="-gneE3 gneE2"/>
    </vehicle>
    <vehicle id="55" depart="0.03" departLane="best" departPos="random_free" departSpeed="max" type="DefaultCar">
        <route edges="-gneE1 gneE3"/>
    </vehicle>
    <vehicle id="56" depart="0.03" departLane="best" departPos="random_free" departSpeed="max" type="DefaultCar">
        <route edges="-gneE3 gneE1"/>
    </vehicle>
    <vehicle id="57" depart="0.03" departLane="best" departPos="random_free" departSpeed="max" type="DefaultCar">
        <route edges="-gneE1 gneE2"/>
    </vehicle>
    <vehicle id="58" depart="0.03" departLane="best" departPos="random_free" departSpeed="max" type="DefaultCar">
        <route edges="-gneE2 -gneE0"/>
    </vehicle>
    <vehicle id="69" depart="0.04" departLane="best" departPos="random_free" departSpeed="max" type="DefaultCar">
        <route edges="-gneE3 gneE1"/>
    </vehicle>
    <vehicle id="1_0" depart="0.20" departLane="best" departPos="base" departSpeed="max" type="DefaultCar">
        <route edges="-gneE1 gneE3"/>
    </vehicle>
    <vehicle id="1_1" depart="0.24" departLane="best" departPos="base" departSpeed="max" type="DefaultCar">
        <route edges="-gneE3 gneE2"/>
    </vehicle>
    <vehicle id="1_2" depart="0.28" departLane="best" departPos="base" departSpeed="max" type="DefaultCar">
        <route edges="-gneE2 gneE3"/>
    </vehicle>
    <vehicle id="1_4" depart="0.36" departLane="best" departPos="base" departSpeed="max" type="DefaultCar">
        <route edges="-gneE1 -gneE0"/>
    </vehicle>
    <vehicle id="1_5" depart="0.40" departLane="best" departPos="base" departSpeed="max" type="DefaultCar">
        <route edges="-gneE1 gneE3"/>
    </vehicle>
    <vehicle id="1_6" depart="0.44" departLane="best" departPos="base" departSpeed="max" type="DefaultCar">
        <route edges="-gneE1 gneE3"/>
    </vehicle>
    <vehicle id="1_7" depart="0.48" departLane="best" departPos="base" departSpeed="max" type="DefaultCar">
        <route edges="-gneE2 gneE3"/>
    </vehicle>
    <vehicle id="1_8" depart="0.52" departLane="best" departPos="base" departSpeed="max" type="DefaultCar">
        <route edges="-gneE2 -gneE0"/>
    </vehicle>
    <vehicle id="1_10" depart="0.60" departLane="best" departPos="base" departSpeed="max" type="DefaultCar">
        <route edges="-gneE1 -gneE0"/>
    </vehicle>
    <vehicle id="1_11" depart="0.64" departLane="best" departPos="base" departSpeed="max" type="DefaultCar">
        <route edges="-gneE1 gneE3"/>
    </vehicle>
    <vehicle id="1_12" depart="0.68" departLane="best" departPos="base" departSpeed="max" type="DefaultCar">
        <route edges="-gneE3 gneE2"/>
    </vehicle>
    <vehicle id="1_14" depart="0.76" departLane="best" departPos="base" departSpeed="max" type="DefaultCar">
        <route edges="gneE0 gneE3"/>
    </vehicle>
    <vehicle id="1_16" depart="0.84" departLane="best" departPos="base" departSpeed="max" type="DefaultCar">
        <route edges="-gneE1 -gneE0"/>
    </vehicle>
    <vehicle id="1_18" depart="0.92" departLane="best" departPos="base" departSpeed="max" type="DefaultCar">
        <route edges="-gneE3 gneE1"/>
    </vehicle>
    <vehicle id="1_20" depart="1.00" departLane="best" departPos="base" departSpeed="max" type="DefaultCar">
        <route edges="-gneE3 -gneE0"/>
    </vehicle>
    <vehicle id="1_21" depart="1.04" departLane="best" departPos="base" departSpeed="max" type="DefaultCar">
        <route edges="-gneE1 -gneE0"/>
    </vehicle>
    <vehicle id="1_23" depart="1.12" departLane="best" departPos="base" departSpeed="max" type="DefaultCar">
        <route edges="-gneE3 -gneE0"/>
    </vehicle>
    <vehicle id="1_25" depart="1.20" departLane="best" departPos="base" departSpeed="max" type="DefaultCar">
        <route edges="gneE0 gneE2"/>
    </vehicle>
    <vehicle id="1_26" depart="1.24" departLane="best" departPos="base" departSpeed="max" type="DefaultCar">
        <route edges="gneE0 gneE1"/>
    </vehicle>
    <vehicle id="1_27" depart="1.28" departLane="best" departPos="base" departSpeed="max" type="DefaultCar">
        <route edges="-gneE3 gneE1"/>
    </vehicle>
    <vehicle id="1_28" depart="1.32" departLane="best" departPos="base" departSpeed="max" type="DefaultCar">
        <route edges="gneE0 gneE3"/>
    </vehicle>
    <vehicle id="1_29" depart="1.36" departLane="best" departPos="base" departSpeed="max" type="DefaultCar">
        <route edges="-gneE1 -gneE0"/>
    </vehicle>
    <vehicle id="1_30" depart="1.40" departLane="best" departPos="base" departSpeed="max" type="DefaultCar">
        <route edges="-gneE3 gneE1"/>
    </vehicle>
    <vehicle id="1_31" depart="1.44" departLane="best" departPos="base" departSpeed="max" type="DefaultCar">
        <route edges="-gneE3 gneE1"/>
    </vehicle>
    <vehicle id="1_32" depart="1.48" departLane="best" departPos="base" departSpeed="max" type="DefaultCar">
        <route edges="-gneE1 -gneE0"/>
    </vehicle>
    <vehicle id="1_33" depart="1.52" departLane="best" departPos="base" departSpeed="max" type="DefaultCar">
        <route edges="-gneE2 gneE3"/>
    </vehicle>
    <vehicle id="1_34" depart="1.56" departLane="best" departPos="base" departSpeed="max" type="DefaultCar">
        <route edges="gneE0 gneE3"/>
    </vehicle>
    <vehicle id="1_36" depart="1.64" departLane="best" departPos="base" departSpeed="max" type="DefaultCar">
        <route edges="-gneE3 gneE1"/>
    </vehicle>
    <vehicle id="1_37" depart="1.68" departLane="best" departPos="base" departSpeed="max" type="DefaultCar">
        <route edges="gneE0 gneE3"/>
    </vehicle>
    <vehicle id="1_38" depart="1.72" departLane="best" departPos="base" departSpeed="max" type="DefaultCar">
        <route edges="-gneE1 gneE3"/>
    </vehicle>
    <vehicle id="1_39" depart="1.76" departLane="best" departPos="base" departSpeed="max" type="DefaultCar">
        <route edges="gneE0 gneE3"/>
    </vehicle>
    <vehicle id="1_40" depart="1.80" departLane="best" departPos="base" departSpeed="max" type="DefaultCar">
        <route edges="-gneE1 -gneE0"/>
    </vehicle>
    <vehicle id="1_42" depart="1.88" departLane="best" departPos="base" departSpeed="max" type="DefaultCar">
        <route edges="-gneE2 -gneE0"/>
    </vehicle>
    <vehicle id="1_43" depart="1.92" departLane="best" departPos="base" departSpeed="max" type="DefaultCar">
        <route edges="-gneE3 gneE2"/>
    </vehicle>
    <vehicle id="1_44" depart="1.96" departLane="best" departPos="base" departSpeed="max" type="DefaultCar">
        <route edges="gneE0 gneE2"/>
    </vehicle>
    <vehicle id="1_45" depart="2.00" departLane="best" departPos="base" departSpeed="max" type="DefaultCar">
        <route edges="-gneE1 gneE3"/>
    </vehicle>
    <vehicle id="1_46" depart="2.04" departLane="best" departPos="base" departSpeed="max" type="DefaultCar">
        <route edges="-gneE2 gneE3"/>
    </vehicle>
    <vehicle id="1_48" depart="2.12" departLane="best" departPos="base" departSpeed="max" type="DefaultCar">
        <route edges="-gneE3 gneE1"/>
    </vehicle>
    <vehicle id="1_49" depart="2.16" departLane="best" departPos="base" departSpeed="max" type="DefaultCar">
        <route edges="-gneE3 -gneE0"/>
    </vehicle>
    <vehicle id="1_50" depart="2.20" departLane="best" departPos="base" departSpeed="max" type="DefaultCar">
        <route edges="-gneE2 -gneE0"/>
    </vehicle>
    <vehicle id="1_51" depart="2.24" departLane="best" departPos="base" departSpeed="max" type="DefaultCar">
        <route edges="gneE0 gneE3"/>
    </vehicle>
    <vehicle id="1_52" depart="2.28" departLane="best" departPos="base" departSpeed="max" type="DefaultCar">
        <route edges="-gneE2 -gneE0"/>
    </vehicle>
    <vehicle id="1_53" depart="2.32" departLane="best" departPos="base" departSpeed="max" type="DefaultCar">
        <route edges="-gneE2 gneE1"/>
    </vehicle>
    <vehicle id="1_54" depart="2.36" departLane="best" departPos="base" departSpeed="max" type="DefaultCar">
        <route edges="gneE0 gneE2"/>
    </vehicle>
    <vehicle id="1_55" depart="2.40" departLane="best" departPos="base" departSpeed="max" type="DefaultCar">
        <route edges="gneE0 gneE1"/>
    </vehicle>
    <vehicle id="1_56" depart="2.44" departLane="best" departPos="base" departSpeed="max" type="DefaultCar">
        <route edges="gneE0 gneE3"/>
    </vehicle>
    <vehicle id="1_57" depart="2.48" departLane="best" departPos="base" departSpeed="max" type="DefaultCar">
        <route edges="-gneE1 gneE3"/>
    </vehicle>
    <vehicle id="1_62" depart="2.68" departLane="best" departPos="base" departSpeed="max" type="DefaultCar">
        <route edges="gneE0 gneE2"/>
    </vehicle>
    <vehicle id="1_63" depart="2.72" departLane="best" departPos="base" departSpeed="max" type="DefaultCar">
        <route edges="-gneE2 gneE1"/>
    </vehicle>
    <vehicle id="1_66" depart="2.84" departLane="best" departPos="base" departSpeed="max" type="DefaultCar">
        <route edges="-gneE1 -gneE0"/>
    </vehicle>
    <vehicle id="1_70" depart="3.00" departLane="best" departPos="base" departSpeed="max" type="DefaultCar">
        <route edges="-gneE1 -gneE0"/>
    </vehicle>
    <vehicle id="1_71" depart="3.04" departLane="best" departPos="base" departSpeed="max" type="DefaultCar">
        <route edges="gneE0 gneE3"/>
    </vehicle>
    <vehicle id="1_75" depart="3.20" departLane="best" departPos="base" departSpeed="max" type="DefaultCar">
        <route edges="gneE0 gneE3"/>
    </vehicle>
    <vehicle id="1_76" depart="3.24" departLane="best" departPos="base" departSpeed="max" type="DefaultCar">
        <route edges="gneE0 gneE1"/>
    </vehicle>
    <vehicle id="1_77" depart="3.28" departLane="best" departPos="base" departSpeed="max" type="DefaultCar">
        <route edges="gneE0 gneE3"/>
    </vehicle>
    <vehicle id="1_80" depart="3.40" departLane="best" departPos="base" departSpeed="max" type="DefaultCar">
        <route edges="-gneE3 gneE1"/>
    </vehicle>
    <vehicle id="1_83" depart="3.52" departLane="best" departPos="base" departSpeed="max" type="DefaultCar">
        <route edges="-gneE3 -gneE0"/>
    </vehicle>
    <vehicle id="1_84" depart="3.56" departLane="best" departPos="base" departSpeed="max" type="DefaultCar">
        <route edges="gneE0 gneE1"/>
    </vehicle>
    <vehicle id="1_85" depart="3.60" departLane="best" departPos="base" departSpeed="max" type="DefaultCar">
        <route edges="gneE0 gneE3"/>
    </vehicle>
    <vehicle id="1_86" depart="3.64" departLane="best" departPos="base" departSpeed="max" type="DefaultCar">
        <route edges="-gneE2 -gneE0"/>
    </vehicle>
    <vehicle id="1_87" depart="3.68" departLane="best" departPos="base" departSpeed="max" type="DefaultCar">
        <route edges="-gneE3 gneE2"/>
    </vehicle>
    <vehicle id="1_88" depart="3.72" departLane="best" departPos="base" departSpeed="max" type="DefaultCar">
        <route edges="-gneE1 gneE3"/>
    </vehicle>
    <vehicle id="1_89" depart="3.76" departLane="best" departPos="base" departSpeed="max" type="DefaultCar">
        <route edges="-gneE1 -gneE0"/>
    </vehicle>
    <vehicle id="1_91" depart="3.84" departLane="best" departPos="base" departSpeed="max" type="DefaultCar">
        <route edges="gneE0 gneE2"/>
    </vehicle>
    <vehicle id="1_92" depart="3.88" departLane="best" departPos="base" departSpeed="max" type="DefaultCar">
        <route edges="gneE0 gneE2"/>
    </vehicle>
    <vehicle id="1_93" depart="3.92" departLane="best" departPos="base" departSpeed="max" type="DefaultCar">
        <route edges="-gneE3 -gneE0"/>
    </vehicle>
    <vehicle id="1_94" depart="3.96" departLane="best" departPos="base" departSpeed="max" type="DefaultCar">
        <route edges="gneE0 gneE2"/>
    </vehicle>
    <vehicle id="1_96" depart="4.04" departLane="best" departPos="base" departSpeed="max" type="DefaultCar">
        <route edges="-gneE1 gneE3"/>
    </vehicle>
    <vehicle id="1_97" depart="4.08" departLane="best" departPos="base" departSpeed="max" type="DefaultCar">
        <route edges="-gneE1 gneE2"/>
    </vehicle>
    <vehicle id="1_98" depart="4.12" departLane="best" departPos="base" departSpeed="max" type="DefaultCar">
        <route edges="-gneE3 gneE1"/>
    </vehicle>
    <vehicle id="1_100" depart="4.20" departLane="best" departPos="base" departSpeed="max" type="DefaultCar">
        <route edges="-gneE2 -gneE0"/>
    </vehicle>
    <vehicle id="1_101" depart="4.24" departLane="best" departPos="base" departSpeed="max" type="DefaultCar">
        <route edges="-gneE1 gneE3"/>
    </vehicle>
    <vehicle id="1_102" depart="4.28" departLane="best" departPos="base" departSpeed="max" type="DefaultCar">
        <route edges="-gneE2 gneE3"/>
    </vehicle>
    <vehicle id="1_103" depart="4.32" departLane="best" departPos="base" departSpeed="max" type="DefaultCar">
        <route edges="-gneE1 gneE2"/>
    </vehicle>
    <vehicle id="1_104" depart="4.36" departLane="best" departPos="base" departSpeed="max" type="DefaultCar">
        <route edges="-gneE1 -gneE0"/>
    </vehicle>
    <vehicle id="1_108" depart="4.52" departLane="best" departPos="base" departSpeed="max" type="DefaultCar">
        <route edges="-gneE1 -gneE0"/>
    </vehicle>
    <vehicle id="1_109" depart="4.56" departLane="best" departPos="base" departSpeed="max" type="DefaultCar">
        <route edges="-gneE2 gneE3"/>
    </vehicle>
    <vehicle id="1_110" depart="4.60" departLane="best" departPos="base" departSpeed="max" type="DefaultCar">
        <route edges="-gneE2 gneE3"/>
    </vehicle>
    <vehicle id="1_111" depart="4.64" departLane="best" departPos="base" departSpeed="max" type="DefaultCar">
        <route edges="-gneE1 -gneE0"/>
    </vehicle>
    <vehicle id="1_112" depart="4.68" departLane="best" departPos="base" departSpeed="max" type="DefaultCar">
        <route edges="-gneE2 -gneE0"/>
    </vehicle>
    <vehicle id="1_113" depart="4.72" departLane="best" departPos="base" departSpeed="max" type="DefaultCar">
        <route edges="-gneE1 -gneE0"/>
    </vehicle>
    <vehicle id="1_114" depart="4.76" departLane="best" departPos="base" departSpeed="max" type="DefaultCar">
        <route edges="-gneE2 gneE3"/>
    </vehicle>
    <vehicle id="1_115" depart="4.80" departLane="best" departPos="base" departSpeed="max" type="DefaultCar">
        <route edges="gneE0 gneE1"/>
    </vehicle>
    <vehicle id="1_117" depart="4.88" departLane="best" departPos="base" departSpeed="max" type="DefaultCar">
        <route edges="-gneE3 -gneE0"/>
    </vehicle>
    <vehicle id="1_118" depart="4.92" departLane="best" departPos="base" departSpeed="max" type="DefaultCar">
        <route edges="-gneE1 -gneE0"/>
    </vehicle>
    <vehicle id="1_119" depart="4.96" departLane="best" departPos="base" departSpeed="max" type="DefaultCar">
        <route edges="-gneE2 gneE1"/>
    </vehicle>
    <vehicle id="1_120" depart="5.00" departLane="best" departPos="base" departSpeed="max" type="DefaultCar">
        <route edges="-gneE2 gneE1"/>
    </vehicle>
    <vehicle id="1_122" depart="5.08" departLane="best" departPos="base" departSpeed="max" type="DefaultCar">
        <route edges="-gneE1 gneE3"/>
    </vehicle>
    <vehicle id="1_123" depart="5.12" departLane="best" departPos="base" departSpeed="max" type="DefaultCar">
        <route edges="-gneE2 gneE3"/>
    </vehicle>
    <vehicle id="1_124" depart="5.16" departLane="best" departPos="base" departSpeed="max" type="DefaultCar">
        <route edges="-gneE2 -gneE0"/>
    </vehicle>
    <vehicle id="1_125" depart="5.20" departLane="best" departPos="base" departSpeed="max" type="DefaultCar">
        <route edges="gneE0 gneE2"/>
    </vehicle>
    <vehicle id="1_128" depart="5.32" departLane="best" departPos="base" departSpeed="max" type="DefaultCar">
        <route edges="-gneE3 gneE2"/>
    </vehicle>
    <vehicle id="1_129" depart="5.36" departLane="best" departPos="base" departSpeed="max" type="DefaultCar">
        <route edges="-gneE1 -gneE0"/>
    </vehicle>
    <vehicle id="1_130" depart="5.40" departLane="best" departPos="base" departSpeed="max" type="DefaultCar">
        <route edges="gneE0 gneE3"/>
    </vehicle>
    <vehicle id="1_131" depart="5.44" departLane="best" departPos="base" departSpeed="max" type="DefaultCar">
        <route edges="-gneE1 -gneE0"/>
    </vehicle>
    <vehicle id="1_132" depart="5.48" departLane="best" departPos="base" departSpeed="max" type="DefaultCar">
        <route edges="-gneE1 -gneE0"/>
    </vehicle>
    <vehicle id="1_133" depart="5.52" departLane="best" departPos="base" departSpeed="max" type="DefaultCar">
        <route edges="-gneE2 gneE3"/>
    </vehicle>
    <vehicle id="1_134" depart="5.56" departLane="best" departPos="base" departSpeed="max" type="DefaultCar">
        <route edges="-gneE2 gneE3"/>
    </vehicle>
    <vehicle id="1_139" depart="5.76" departLane="best" departPos="base" departSpeed="max" type="DefaultCar">
        <route edges="-gneE1 gneE2"/>
    </vehicle>
    <vehicle id="1_140" depart="5.80" departLane="best" departPos="base" departSpeed="max" type="DefaultCar">
        <route edges="-gneE1 gneE2"/>
    </vehicle>
    <vehicle id="1_141" depart="5.84" departLane="best" departPos="base" departSpeed="max" type="DefaultCar">
        <route edges="gneE0 gneE2"/>
    </vehicle>
    <vehicle id="1_143" depart="5.92" departLane="best" departPos="base" departSpeed="max" type="DefaultCar">
        <route edges="gneE0 gneE2"/>
    </vehicle>
    <vehicle id="1_145" depart="6.00" departLane="best" departPos="base" departSpeed="max" type="DefaultCar">
        <route edges="-gneE2 gneE1"/>
    </vehicle>
    <vehicle id="1_146" depart="6.04" departLane="best" departPos="base" departSpeed="max" type="DefaultCar">
        <route edges="gneE0 gneE3"/>
    </vehicle>
    <vehicle id="1_147" depart="6.08" departLane="best" departPos="base" departSpeed="max" type="DefaultCar">
        <route edges="-gneE1 gneE3"/>
    </vehicle>
    <vehicle id="1_148" depart="6.12" departLane="best" departPos="base" departSpeed="max" type="DefaultCar">
        <route edges="-gneE2 -gneE0"/>
    </vehicle>
</routes>