<?xml version="1.0" encoding="UTF-8"?>

<!-- generated on Thu Sep 20 07:39:15 2018 by SUMO duarouter Version UNKNOWN
<configuration xmlns:xsi="http://www.w3.org/2001/XMLSchema-instance" xsi:noNamespaceSchemaLocation="http://sumo.dlr.de/xsd/duarouterConfiguration.xsd">

    <input>
        <net-file value="test.net.xml"/>
        <route-files value="trips.trips.xml"/>
    </input>

    <output>
        <output-file value="temp0.rou.xml"/>
        <alternatives-output value="temp0.rou.alt.xml"/>
    </output>

    <processing>
        <ignore-errors value="true"/>
    </processing>

    <time>
        <begin value="0"/>
        <end value="0.1"/>
    </time>

    <report>
        <no-warnings value="true"/>
        <no-step-log value="true"/>
    </report>

</configuration>
-->

<routes xmlns:xsi="http://www.w3.org/2001/XMLSchema-instance" xsi:noNamespaceSchemaLocation="http://sumo.dlr.de/xsd/routes_file.xsd">
    <vType id="DefaultCar" speedFactor="normc(1,0.15)"/>
    <vType id="EgoCar" color="0,1,0"/>
<vehicle id="ego" depart="0.00" departLane="random" departPos="base" departSpeed="max" type="EgoCar">
        <route edges="-gneE2 -gneE0"/>
    </vehicle>
    <vehicle id="1" depart="0.00" departLane="best" departPos="random_free" departSpeed="max" type="DefaultCar">
        <route edges="-gneE3 gneE1"/>
    </vehicle>
    <vehicle id="2" depart="0.00" departLane="best" departPos="random_free" departSpeed="max" type="DefaultCar">
        <route edges="-gneE1 gneE3"/>
    </vehicle>
    <vehicle id="3" depart="0.00" departLane="best" departPos="random_free" departSpeed="max" type="DefaultCar">
        <route edges="-gneE2 -gneE0"/>
    </vehicle>
    <vehicle id="4" depart="0.00" departLane="best" departPos="random_free" departSpeed="max" type="DefaultCar">
        <route edges="-gneE1 gneE3"/>
    </vehicle>
    <vehicle id="6" depart="0.00" departLane="best" departPos="random_free" departSpeed="max" type="DefaultCar">
        <route edges="-gneE1 gneE2"/>
    </vehicle>
    <vehicle id="7" depart="0.00" departLane="best" departPos="random_free" departSpeed="max" type="DefaultCar">
        <route edges="-gneE2 gneE3"/>
    </vehicle>
    <vehicle id="8" depart="0.00" departLane="best" departPos="random_free" departSpeed="max" type="DefaultCar">
        <route edges="-gneE1 gneE2"/>
    </vehicle>
    <vehicle id="9" depart="0.00" departLane="best" departPos="random_free" departSpeed="max" type="DefaultCar">
        <route edges="gneE0 gneE3"/>
    </vehicle>
    <vehicle id="13" depart="0.01" departLane="best" departPos="random_free" departSpeed="max" type="DefaultCar">
        <route edges="-gneE2 gneE1"/>
    </vehicle>
    <vehicle id="14" depart="0.01" departLane="best" departPos="random_free" departSpeed="max" type="DefaultCar">
        <route edges="-gneE2 gneE1"/>
    </vehicle>
    <vehicle id="15" depart="0.01" departLane="best" departPos="random_free" departSpeed="max" type="DefaultCar">
        <route edges="gneE0 gneE3"/>
    </vehicle>
    <vehicle id="16" depart="0.01" departLane="best" departPos="random_free" departSpeed="max" type="DefaultCar">
        <route edges="-gneE2 gneE3"/>
    </vehicle>
    <vehicle id="17" depart="0.01" departLane="best" departPos="random_free" departSpeed="max" type="DefaultCar">
        <route edges="-gneE1 -gneE0"/>
    </vehicle>
    <vehicle id="18" depart="0.01" departLane="best" departPos="random_free" departSpeed="max" type="DefaultCar">
        <route edges="-gneE3 gneE2"/>
    </vehicle>
    <vehicle id="20" depart="0.01" departLane="best" departPos="random_free" departSpeed="max" type="DefaultCar">
        <route edges="-gneE2 gneE3"/>
    </vehicle>
    <vehicle id="21" depart="0.01" departLane="best" departPos="random_free" departSpeed="max" type="DefaultCar">
        <route edges="-gneE2 gneE3"/>
    </vehicle>
    <vehicle id="22" depart="0.01" departLane="best" departPos="random_free" departSpeed="max" type="DefaultCar">
        <route edges="-gneE2 gneE1"/>
    </vehicle>
    <vehicle id="23" depart="0.01" departLane="best" departPos="random_free" departSpeed="max" type="DefaultCar">
        <route edges="-gneE3 gneE1"/>
    </vehicle>
    <vehicle id="25" depart="0.01" departLane="best" departPos="random_free" departSpeed="max" type="DefaultCar">
        <route edges="-gneE3 gneE2"/>
    </vehicle>
    <vehicle id="26" depart="0.01" departLane="best" departPos="random_free" departSpeed="max" type="DefaultCar">
        <route edges="-gneE3 gneE2"/>
    </vehicle>
    <vehicle id="27" depart="0.01" departLane="best" departPos="random_free" departSpeed="max" type="DefaultCar">
        <route edges="-gneE1 -gneE0"/>
    </vehicle>
    <vehicle id="28" depart="0.01" departLane="best" departPos="random_free" departSpeed="max" type="DefaultCar">
        <route edges="-gneE2 gneE1"/>
    </vehicle>
    <vehicle id="30" depart="0.01" departLane="best" departPos="random_free" departSpeed="max" type="DefaultCar">
        <route edges="-gneE2 gneE1"/>
    </vehicle>
    <vehicle id="31" depart="0.01" departLane="best" departPos="random_free" departSpeed="max" type="DefaultCar">
        <route edges="gneE0 gneE2"/>
    </vehicle>
    <vehicle id="32" depart="0.01" departLane="best" departPos="random_free" departSpeed="max" type="DefaultCar">
        <route edges="-gneE1 gneE3"/>
    </vehicle>
    <vehicle id="33" depart="0.01" departLane="best" departPos="random_free" departSpeed="max" type="DefaultCar">
        <route edges="-gneE1 gneE3"/>
    </vehicle>
    <vehicle id="34" depart="0.01" departLane="best" departPos="random_free" departSpeed="max" type="DefaultCar">
        <route edges="gneE0 gneE2"/>
    </vehicle>
    <vehicle id="35" depart="0.01" departLane="best" departPos="random_free" departSpeed="max" type="DefaultCar">
        <route edges="-gneE3 -gneE0"/>
    </vehicle>
    <vehicle id="36" depart="0.01" departLane="best" departPos="random_free" departSpeed="max" type="DefaultCar">
        <route edges="-gneE1 gneE3"/>
    </vehicle>
    <vehicle id="37" depart="0.01" departLane="best" departPos="random_free" departSpeed="max" type="DefaultCar">
        <route edges="-gneE1 -gneE0"/>
    </vehicle>
    <vehicle id="39" depart="0.02" departLane="best" departPos="random_free" departSpeed="max" type="DefaultCar">
        <route edges="-gneE3 gneE2"/>
    </vehicle>
    <vehicle id="40" depart="0.02" departLane="best" departPos="random_free" departSpeed="max" type="DefaultCar">
        <route edges="-gneE3 gneE2"/>
    </vehicle>
    <vehicle id="41" depart="0.02" departLane="best" departPos="random_free" departSpeed="max" type="DefaultCar">
        <route edges="gneE0 gneE2"/>
    </vehicle>
    <vehicle id="42" depart="0.02" departLane="best" departPos="random_free" departSpeed="max" type="DefaultCar">
        <route edges="-gneE2 gneE3"/>
    </vehicle>
    <vehicle id="44" depart="0.02" departLane="best" departPos="random_free" departSpeed="max" type="DefaultCar">
        <route edges="-gneE1 gneE2"/>
    </vehicle>
    <vehicle id="46" depart="0.02" departLane="best" departPos="random_free" departSpeed="max" type="DefaultCar">
        <route edges="-gneE1 -gneE0"/>
    </vehicle>
    <vehicle id="48" depart="0.02" departLane="best" departPos="random_free" departSpeed="max" type="DefaultCar">
        <route edges="-gneE2 gneE3"/>
    </vehicle>
    <vehicle id="49" depart="0.02" departLane="best" departPos="random_free" departSpeed="max" type="DefaultCar">
        <route edges="gneE0 gneE3"/>
    </vehicle>
    <vehicle id="50" depart="0.02" departLane="best" departPos="random_free" departSpeed="max" type="DefaultCar">
        <route edges="-gneE1 -gneE0"/>
    </vehicle>
    <vehicle id="52" depart="0.02" departLane="best" departPos="random_free" departSpeed="max" type="DefaultCar">
        <route edges="gneE0 gneE1"/>
    </vehicle>
    <vehicle id="54" depart="0.02" departLane="best" departPos="random_free" departSpeed="max" type="DefaultCar">
        <route edges="-gneE2 -gneE0"/>
    </vehicle>
    <vehicle id="55" depart="0.02" departLane="best" departPos="random_free" departSpeed="max" type="DefaultCar">
        <route edges="-gneE2 gneE1"/>
    </vehicle>
    <vehicle id="56" depart="0.02" departLane="best" departPos="random_free" departSpeed="max" type="DefaultCar">
        <route edges="gneE0 gneE3"/>
    </vehicle>
    <vehicle id="57" depart="0.02" departLane="best" departPos="random_free" departSpeed="max" type="DefaultCar">
        <route edges="-gneE1 -gneE0"/>
    </vehicle>
    <vehicle id="58" depart="0.02" departLane="best" departPos="random_free" departSpeed="max" type="DefaultCar">
        <route edges="gneE0 gneE3"/>
    </vehicle>
    <vehicle id="59" depart="0.02" departLane="best" departPos="random_free" departSpeed="max" type="DefaultCar">
        <route edges="-gneE3 -gneE0"/>
    </vehicle>
    <vehicle id="1_1" depart="0.56" departLane="best" departPos="base" departSpeed="max" type="DefaultCar">
        <route edges="-gneE3 gneE2"/>
    </vehicle>
    <vehicle id="1_2" depart="0.92" departLane="best" departPos="base" departSpeed="max" type="DefaultCar">
        <route edges="-gneE3 gneE1"/>
    </vehicle>
    <vehicle id="1_3" depart="1.28" departLane="best" departPos="base" departSpeed="max" type="DefaultCar">
        <route edges="-gneE2 gneE1"/>
    </vehicle>
    <vehicle id="1_5" depart="2.00" departLane="best" departPos="base" departSpeed="max" type="DefaultCar">
        <route edges="-gneE2 -gneE0"/>
    </vehicle>
    <vehicle id="1_6" depart="2.36" departLane="best" departPos="base" departSpeed="max" type="DefaultCar">
        <route edges="-gneE1 gneE2"/>
    </vehicle>
    <vehicle id="1_7" depart="2.72" departLane="best" departPos="base" departSpeed="max" type="DefaultCar">
        <route edges="-gneE2 gneE1"/>
    </vehicle>
    <vehicle id="1_8" depart="3.08" departLane="best" departPos="base" departSpeed="max" type="DefaultCar">
        <route edges="gneE0 gneE2"/>
    </vehicle>
    <vehicle id="1_9" depart="3.44" departLane="best" departPos="base" departSpeed="max" type="DefaultCar">
        <route edges="-gneE2 -gneE0"/>
    </vehicle>
    <vehicle id="1_10" depart="3.80" departLane="best" departPos="base" departSpeed="max" type="DefaultCar">
        <route edges="-gneE1 gneE3"/>
    </vehicle>
    <vehicle id="1_11" depart="4.16" departLane="best" departPos="base" departSpeed="max" type="DefaultCar">
        <route edges="-gneE3 gneE1"/>
    </vehicle>
    <vehicle id="1_12" depart="4.52" departLane="best" departPos="base" departSpeed="max" type="DefaultCar">
        <route edges="-gneE1 gneE3"/>
    </vehicle>
    <vehicle id="1_14" depart="5.24" departLane="best" departPos="base" departSpeed="max" type="DefaultCar">
        <route edges="-gneE3 -gneE0"/>
    </vehicle>
    <vehicle id="1_15" depart="5.60" departLane="best" departPos="base" departSpeed="max" type="DefaultCar">
        <route edges="gneE0 gneE2"/>
    </vehicle>
    <vehicle id="1_16" depart="5.96" departLane="best" departPos="base" departSpeed="max" type="DefaultCar">
        <route edges="-gneE1 -gneE0"/>
    </vehicle>
    <vehicle id="1_17" depart="6.32" departLane="best" departPos="base" departSpeed="max" type="DefaultCar">
        <route edges="-gneE2 gneE3"/>
    </vehicle>
    <vehicle id="1_20" depart="7.40" departLane="best" departPos="base" departSpeed="max" type="DefaultCar">
        <route edges="-gneE1 gneE3"/>
    </vehicle>
    <vehicle id="1_21" depart="7.76" departLane="best" departPos="base" departSpeed="max" type="DefaultCar">
        <route edges="-gneE2 gneE3"/>
    </vehicle>
    <vehicle id="1_22" depart="8.12" departLane="best" departPos="base" departSpeed="max" type="DefaultCar">
        <route edges="-gneE3 -gneE0"/>
    </vehicle>
    <vehicle id="1_23" depart="8.48" departLane="best" departPos="base" departSpeed="max" type="DefaultCar">
        <route edges="-gneE1 -gneE0"/>
    </vehicle>
    <vehicle id="1_24" depart="8.84" departLane="best" departPos="base" departSpeed="max" type="DefaultCar">
        <route edges="-gneE3 -gneE0"/>
    </vehicle>
    <vehicle id="1_26" depart="9.56" departLane="best" departPos="base" departSpeed="max" type="DefaultCar">
        <route edges="-gneE3 gneE1"/>
    </vehicle>
    <vehicle id="1_27" depart="9.92" departLane="best" departPos="base" departSpeed="max" type="DefaultCar">
        <route edges="-gneE1 -gneE0"/>
    </vehicle>
    <vehicle id="1_28" depart="10.28" departLane="best" departPos="base" departSpeed="max" type="DefaultCar">
        <route edges="-gneE3 gneE1"/>
    </vehicle>
    <vehicle id="1_29" depart="10.64" departLane="best" departPos="base" departSpeed="max" type="DefaultCar">
        <route edges="-gneE2 gneE3"/>
    </vehicle>
    <vehicle id="1_30" depart="11.00" departLane="best" departPos="base" departSpeed="max" type="DefaultCar">
        <route edges="-gneE2 gneE1"/>
    </vehicle>
    <vehicle id="1_31" depart="11.36" departLane="best" departPos="base" departSpeed="max" type="DefaultCar">
        <route edges="-gneE2 gneE3"/>
    </vehicle>
    <vehicle id="1_32" depart="11.72" departLane="best" departPos="base" departSpeed="max" type="DefaultCar">
        <route edges="-gneE2 -gneE0"/>
    </vehicle>
    <vehicle id="1_33" depart="12.08" departLane="best" departPos="base" departSpeed="max" type="DefaultCar">
        <route edges="gneE0 gneE3"/>
    </vehicle>
    <vehicle id="1_34" depart="12.44" departLane="best" departPos="base" departSpeed="max" type="DefaultCar">
        <route edges="-gneE1 gneE2"/>
    </vehicle>
    <vehicle id="1_35" depart="12.80" departLane="best" departPos="base" departSpeed="max" type="DefaultCar">
        <route edges="-gneE3 -gneE0"/>
    </vehicle>
    <vehicle id="1_36" depart="13.16" departLane="best" departPos="base" departSpeed="max" type="DefaultCar">
        <route edges="-gneE3 gneE1"/>
    </vehicle>
    <vehicle id="1_37" depart="13.52" departLane="best" departPos="base" departSpeed="max" type="DefaultCar">
        <route edges="-gneE3 gneE2"/>
    </vehicle>
    <vehicle id="1_38" depart="13.88" departLane="best" departPos="base" departSpeed="max" type="DefaultCar">
        <route edges="-gneE1 gneE3"/>
    </vehicle>
    <vehicle id="1_39" depart="14.24" departLane="best" departPos="base" departSpeed="max" type="DefaultCar">
        <route edges="gneE0 gneE2"/>
    </vehicle>
    <vehicle id="1_40" depart="14.60" departLane="best" departPos="base" departSpeed="max" type="DefaultCar">
        <route edges="-gneE1 gneE2"/>
    </vehicle>
    <vehicle id="1_41" depart="14.96" departLane="best" departPos="base" departSpeed="max" type="DefaultCar">
        <route edges="gneE0 gneE1"/>
    </vehicle>
    <vehicle id="1_43" depart="15.68" departLane="best" departPos="base" departSpeed="max" type="DefaultCar">
        <route edges="-gneE1 gneE3"/>
    </vehicle>
    <vehicle id="1_44" depart="16.04" departLane="best" departPos="base" departSpeed="max" type="DefaultCar">
        <route edges="gneE0 gneE3"/>
    </vehicle>
    <vehicle id="1_47" depart="17.12" departLane="best" departPos="base" departSpeed="max" type="DefaultCar">
        <route edges="-gneE3 gneE1"/>
    </vehicle>
    <vehicle id="1_49" depart="17.84" departLane="best" departPos="base" departSpeed="max" type="DefaultCar">
        <route edges="-gneE3 gneE2"/>
    </vehicle>
    <vehicle id="1_51" depart="18.56" departLane="best" departPos="base" departSpeed="max" type="DefaultCar">
        <route edges="-gneE1 gneE2"/>
    </vehicle>
    <vehicle id="1_52" depart="18.92" departLane="best" departPos="base" departSpeed="max" type="DefaultCar">
        <route edges="-gneE2 -gneE0"/>
    </vehicle>
    <vehicle id="1_54" depart="19.64" departLane="best" departPos="base" departSpeed="max" type="DefaultCar">
        <route edges="gneE0 gneE2"/>
    </vehicle>
    <vehicle id="1_55" depart="20.00" departLane="best" departPos="base" departSpeed="max" type="DefaultCar">
        <route edges="-gneE1 gneE2"/>
    </vehicle>
    <vehicle id="1_57" depart="20.72" departLane="best" departPos="base" departSpeed="max" type="DefaultCar">
        <route edges="-gneE2 -gneE0"/>
    </vehicle>
    <vehicle id="1_58" depart="21.08" departLane="best" departPos="base" departSpeed="max" type="DefaultCar">
        <route edges="-gneE2 -gneE0"/>
    </vehicle>
    <vehicle id="1_59" depart="21.44" departLane="best" departPos="base" departSpeed="max" type="DefaultCar">
        <route edges="-gneE2 -gneE0"/>
    </vehicle>
    <vehicle id="1_61" depart="22.16" departLane="best" departPos="base" departSpeed="max" type="DefaultCar">
        <route edges="-gneE3 gneE2"/>
    </vehicle>
    <vehicle id="1_62" depart="22.52" departLane="best" departPos="base" departSpeed="max" type="DefaultCar">
        <route edges="-gneE3 gneE2"/>
    </vehicle>
    <vehicle id="1_64" depart="23.24" departLane="best" departPos="base" departSpeed="max" type="DefaultCar">
        <route edges="-gneE1 -gneE0"/>
    </vehicle>
    <vehicle id="1_65" depart="23.60" departLane="best" departPos="base" departSpeed="max" type="DefaultCar">
        <route edges="gneE0 gneE3"/>
    </vehicle>
    <vehicle id="1_66" depart="23.96" departLane="best" departPos="base" departSpeed="max" type="DefaultCar">
        <route edges="gneE0 gneE1"/>
    </vehicle>
    <vehicle id="1_67" depart="24.32" departLane="best" departPos="base" departSpeed="max" type="DefaultCar">
        <route edges="-gneE1 gneE3"/>
    </vehicle>
    <vehicle id="1_68" depart="24.68" departLane="best" departPos="base" departSpeed="max" type="DefaultCar">
        <route edges="gneE0 gneE2"/>
    </vehicle>
    <vehicle id="1_69" depart="25.04" departLane="best" departPos="base" departSpeed="max" type="DefaultCar">
        <route edges="-gneE2 gneE3"/>
    </vehicle>
    <vehicle id="1_70" depart="25.40" departLane="best" departPos="base" departSpeed="max" type="DefaultCar">
        <route edges="-gneE2 -gneE0"/>
    </vehicle>
    <vehicle id="1_73" depart="26.48" departLane="best" departPos="base" departSpeed="max" type="DefaultCar">
        <route edges="gneE0 gneE2"/>
    </vehicle>
    <vehicle id="1_76" depart="27.56" departLane="best" departPos="base" departSpeed="max" type="DefaultCar">
        <route edges="-gneE1 -gneE0"/>
    </vehicle>
    <vehicle id="1_77" depart="27.92" departLane="best" departPos="base" departSpeed="max" type="DefaultCar">
        <route edges="-gneE2 -gneE0"/>
    </vehicle>
    <vehicle id="1_78" depart="28.28" departLane="best" departPos="base" departSpeed="max" type="DefaultCar">
        <route edges="-gneE3 gneE2"/>
    </vehicle>
    <vehicle id="1_79" depart="28.64" departLane="best" departPos="base" departSpeed="max" type="DefaultCar">
        <route edges="-gneE1 gneE3"/>
    </vehicle>
    <vehicle id="1_81" depart="29.36" departLane="best" departPos="base" departSpeed="max" type="DefaultCar">
        <route edges="-gneE2 gneE1"/>
    </vehicle>
    <vehicle id="1_82" depart="29.72" departLane="best" departPos="base" departSpeed="max" type="DefaultCar">
        <route edges="gneE0 gneE2"/>
    </vehicle>
    <vehicle id="1_111" depart="40.16" departLane="best" departPos="base" departSpeed="max" type="DefaultCar">
        <route edges="-gneE1 gneE2"/>
    </vehicle>
    <vehicle id="1_112" depart="40.52" departLane="best" departPos="base" departSpeed="max" type="DefaultCar">
        <route edges="-gneE2 gneE3"/>
    </vehicle>
    <vehicle id="1_113" depart="40.88" departLane="best" departPos="base" departSpeed="max" type="DefaultCar">
        <route edges="gneE0 gneE1"/>
    </vehicle>
    <vehicle id="1_115" depart="41.60" departLane="best" departPos="base" departSpeed="max" type="DefaultCar">
        <route edges="-gneE2 gneE3"/>
    </vehicle>
    <vehicle id="1_119" depart="43.04" departLane="best" departPos="base" departSpeed="max" type="DefaultCar">
        <route edges="-gneE3 gneE2"/>
    </vehicle>
    <vehicle id="1_120" depart="43.40" departLane="best" departPos="base" departSpeed="max" type="DefaultCar">
        <route edges="gneE0 gneE3"/>
    </vehicle>
    <vehicle id="1_121" depart="43.76" departLane="best" departPos="base" departSpeed="max" type="DefaultCar">
        <route edges="gneE0 gneE2"/>
    </vehicle>
    <vehicle id="1_122" depart="44.12" departLane="best" departPos="base" departSpeed="max" type="DefaultCar">
        <route edges="-gneE2 -gneE0"/>
    </vehicle>
    <vehicle id="1_124" depart="44.84" departLane="best" departPos="base" departSpeed="max" type="DefaultCar">
        <route edges="gneE0 gneE2"/>
    </vehicle>
    <vehicle id="1_126" depart="45.56" departLane="best" departPos="base" departSpeed="max" type="DefaultCar">
        <route edges="gneE0 gneE2"/>
    </vehicle>
    <vehicle id="1_129" depart="46.64" departLane="best" departPos="base" departSpeed="max" type="DefaultCar">
        <route edges="-gneE2 gneE1"/>
    </vehicle>
    <vehicle id="1_131" depart="47.36" departLane="best" departPos="base" departSpeed="max" type="DefaultCar">
        <route edges="gneE0 gneE1"/>
    </vehicle>
    <vehicle id="1_132" depart="47.72" departLane="best" departPos="base" departSpeed="max" type="DefaultCar">
        <route edges="-gneE2 gneE3"/>
    </vehicle>
    <vehicle id="1_133" depart="48.08" departLane="best" departPos="base" departSpeed="max" type="DefaultCar">
        <route edges="gneE0 gneE2"/>
    </vehicle>
    <vehicle id="1_135" depart="48.80" departLane="best" departPos="base" departSpeed="max" type="DefaultCar">
        <route edges="-gneE3 gneE2"/>
    </vehicle>
    <vehicle id="1_136" depart="49.16" departLane="best" departPos="base" departSpeed="max" type="DefaultCar">
        <route edges="gneE0 gneE3"/>
    </vehicle>
    <vehicle id="1_139" depart="50.24" departLane="best" departPos="base" departSpeed="max" type="DefaultCar">
        <route edges="-gneE1 -gneE0"/>
    </vehicle>
    <vehicle id="1_142" depart="51.32" departLane="best" departPos="base" departSpeed="max" type="DefaultCar">
        <route edges="gneE0 gneE1"/>
    </vehicle>
    <vehicle id="1_143" depart="51.68" departLane="best" departPos="base" departSpeed="max" type="DefaultCar">
        <route edges="-gneE1 gneE3"/>
    </vehicle>
    <vehicle id="1_144" depart="52.04" departLane="best" departPos="base" departSpeed="max" type="DefaultCar">
        <route edges="-gneE2 -gneE0"/>
    </vehicle>
    <vehicle id="1_145" depart="52.40" departLane="best" departPos="base" departSpeed="max" type="DefaultCar">
        <route edges="-gneE1 gneE2"/>
    </vehicle>
    <vehicle id="1_146" depart="52.76" departLane="best" departPos="base" departSpeed="max" type="DefaultCar">
        <route edges="-gneE2 -gneE0"/>
    </vehicle>
    <vehicle id="1_147" depart="53.12" departLane="best" departPos="base" departSpeed="max" type="DefaultCar">
        <route edges="-gneE3 -gneE0"/>
    </vehicle>
    <vehicle id="1_149" depart="53.84" departLane="best" departPos="base" departSpeed="max" type="DefaultCar">
        <route edges="-gneE1 gneE2"/>
    </vehicle>
</routes>