<?xml version="1.0" encoding="UTF-8"?>

<!-- generated on Tue Sep 18 22:03:35 2018 by SUMO duarouter Version UNKNOWN
<configuration xmlns:xsi="http://www.w3.org/2001/XMLSchema-instance" xsi:noNamespaceSchemaLocation="http://sumo.dlr.de/xsd/duarouterConfiguration.xsd">

    <input>
        <net-file value="test.net.xml"/>
        <route-files value="trips.trips.xml"/>
    </input>

    <output>
        <output-file value="temp0.rou.xml"/>
        <alternatives-output value="temp0.rou.alt.xml"/>
    </output>

    <processing>
        <ignore-errors value="true"/>
    </processing>

    <time>
        <begin value="0"/>
        <end value="0.1"/>
    </time>

    <report>
        <no-warnings value="true"/>
        <no-step-log value="true"/>
    </report>

</configuration>
-->

<routes xmlns:xsi="http://www.w3.org/2001/XMLSchema-instance" xsi:noNamespaceSchemaLocation="http://sumo.dlr.de/xsd/routes_file.xsd">
    <vType id="DefaultCar" speedFactor="normc(1,0.15)"/>
    <vType id="EgoCar" color="0,1,0"/>
<vehicle id="ego" depart="0.00" departLane="random" departPos="base" departSpeed="max" type="EgoCar">
        <route edges="-gneE1 -gneE0"/>
    </vehicle>
    <vehicle id="1" depart="0.00" departLane="best" departPos="random_free" departSpeed="max" type="DefaultCar">
        <route edges="-gneE2 gneE1"/>
    </vehicle>
    <vehicle id="2" depart="0.01" departLane="best" departPos="random_free" departSpeed="max" type="DefaultCar">
        <route edges="gneE0 gneE3"/>
    </vehicle>
    <vehicle id="5" depart="0.02" departLane="best" departPos="random_free" departSpeed="max" type="DefaultCar">
        <route edges="-gneE2 gneE1"/>
    </vehicle>
    <vehicle id="7" depart="0.03" departLane="best" departPos="random_free" departSpeed="max" type="DefaultCar">
        <route edges="-gneE3 -gneE0"/>
    </vehicle>
    <vehicle id="8" depart="0.03" departLane="best" departPos="random_free" departSpeed="max" type="DefaultCar">
        <route edges="-gneE2 -gneE0"/>
    </vehicle>
    <vehicle id="9" depart="0.04" departLane="best" departPos="random_free" departSpeed="max" type="DefaultCar">
        <route edges="-gneE2 -gneE0"/>
    </vehicle>
    <vehicle id="11" depart="0.04" departLane="best" departPos="random_free" departSpeed="max" type="DefaultCar">
        <route edges="-gneE2 gneE3"/>
    </vehicle>
    <vehicle id="13" depart="0.05" departLane="best" departPos="random_free" departSpeed="max" type="DefaultCar">
        <route edges="gneE0 gneE1"/>
    </vehicle>
    <vehicle id="14" depart="0.06" departLane="best" departPos="random_free" departSpeed="max" type="DefaultCar">
        <route edges="gneE0 gneE2"/>
    </vehicle>
    <vehicle id="15" depart="0.06" departLane="best" departPos="random_free" departSpeed="max" type="DefaultCar">
        <route edges="-gneE1 -gneE0"/>
    </vehicle>
    <vehicle id="16" depart="0.06" departLane="best" departPos="random_free" departSpeed="max" type="DefaultCar">
        <route edges="gneE0 gneE2"/>
    </vehicle>
    <vehicle id="17" depart="0.07" departLane="best" departPos="random_free" departSpeed="max" type="DefaultCar">
        <route edges="-gneE1 gneE2"/>
    </vehicle>
    <vehicle id="18" depart="0.07" departLane="best" departPos="random_free" departSpeed="max" type="DefaultCar">
        <route edges="-gneE1 gneE2"/>
    </vehicle>
    <vehicle id="19" depart="0.08" departLane="best" departPos="random_free" departSpeed="max" type="DefaultCar">
        <route edges="-gneE2 -gneE0"/>
    </vehicle>
    <vehicle id="20" depart="0.08" departLane="best" departPos="random_free" departSpeed="max" type="DefaultCar">
        <route edges="-gneE1 gneE3"/>
    </vehicle>
    <vehicle id="21" depart="0.08" departLane="best" departPos="random_free" departSpeed="max" type="DefaultCar">
        <route edges="gneE0 gneE2"/>
    </vehicle>
    <vehicle id="23" depart="0.09" departLane="best" departPos="random_free" departSpeed="max" type="DefaultCar">
        <route edges="-gneE3 -gneE0"/>
    </vehicle>
    <vehicle id="1_0" depart="0.20" departLane="best" departPos="base" departSpeed="max" type="DefaultCar">
        <route edges="gneE0 gneE3"/>
    </vehicle>
    <vehicle id="1_4" depart="3.40" departLane="best" departPos="base" departSpeed="max" type="DefaultCar">
        <route edges="-gneE1 gneE2"/>
    </vehicle>
    <vehicle id="1_6" depart="5.00" departLane="best" departPos="base" departSpeed="max" type="DefaultCar">
        <route edges="-gneE2 gneE3"/>
    </vehicle>
    <vehicle id="1_8" depart="6.60" departLane="best" departPos="base" departSpeed="max" type="DefaultCar">
        <route edges="-gneE2 gneE3"/>
    </vehicle>
    <vehicle id="1_9" depart="7.40" departLane="best" departPos="base" departSpeed="max" type="DefaultCar">
        <route edges="-gneE1 -gneE0"/>
    </vehicle>
    <vehicle id="1_10" depart="8.20" departLane="best" departPos="base" departSpeed="max" type="DefaultCar">
        <route edges="gneE0 gneE3"/>
    </vehicle>
    <vehicle id="1_12" depart="9.80" departLane="best" departPos="base" departSpeed="max" type="DefaultCar">
        <route edges="-gneE3 gneE2"/>
    </vehicle>
    <vehicle id="1_13" depart="10.60" departLane="best" departPos="base" departSpeed="max" type="DefaultCar">
        <route edges="-gneE2 gneE1"/>
    </vehicle>
    <vehicle id="1_14" depart="11.40" departLane="best" departPos="base" departSpeed="max" type="DefaultCar">
        <route edges="gneE0 gneE1"/>
    </vehicle>
    <vehicle id="1_15" depart="12.20" departLane="best" departPos="base" departSpeed="max" type="DefaultCar">
        <route edges="-gneE3 gneE1"/>
    </vehicle>
    <vehicle id="1_16" depart="13.00" departLane="best" departPos="base" departSpeed="max" type="DefaultCar">
        <route edges="gneE0 gneE2"/>
    </vehicle>
    <vehicle id="1_17" depart="13.80" departLane="best" departPos="base" departSpeed="max" type="DefaultCar">
        <route edges="-gneE3 gneE1"/>
    </vehicle>
    <vehicle id="1_19" depart="15.40" departLane="best" departPos="base" departSpeed="max" type="DefaultCar">
        <route edges="-gneE3 gneE1"/>
    </vehicle>
    <vehicle id="1_20" depart="16.20" departLane="best" departPos="base" departSpeed="max" type="DefaultCar">
        <route edges="-gneE1 gneE3"/>
    </vehicle>
    <vehicle id="1_21" depart="17.00" departLane="best" departPos="base" departSpeed="max" type="DefaultCar">
        <route edges="-gneE3 -gneE0"/>
    </vehicle>
    <vehicle id="1_22" depart="17.80" departLane="best" departPos="base" departSpeed="max" type="DefaultCar">
        <route edges="-gneE1 -gneE0"/>
    </vehicle>
    <vehicle id="1_23" depart="18.60" departLane="best" departPos="base" departSpeed="max" type="DefaultCar">
        <route edges="-gneE2 gneE1"/>
    </vehicle>
    <vehicle id="1_24" depart="19.40" departLane="best" departPos="base" departSpeed="max" type="DefaultCar">
        <route edges="-gneE1 -gneE0"/>
    </vehicle>
    <vehicle id="1_25" depart="20.20" departLane="best" departPos="base" departSpeed="max" type="DefaultCar">
        <route edges="-gneE2 -gneE0"/>
    </vehicle>
    <vehicle id="1_26" depart="21.00" departLane="best" departPos="base" departSpeed="max" type="DefaultCar">
        <route edges="-gneE2 gneE1"/>
    </vehicle>
    <vehicle id="1_27" depart="21.80" departLane="best" departPos="base" departSpeed="max" type="DefaultCar">
        <route edges="-gneE1 gneE2"/>
    </vehicle>
    <vehicle id="1_28" depart="22.60" departLane="best" departPos="base" departSpeed="max" type="DefaultCar">
        <route edges="-gneE1 gneE3"/>
    </vehicle>
    <vehicle id="1_29" depart="23.40" departLane="best" departPos="base" departSpeed="max" type="DefaultCar">
        <route edges="-gneE3 gneE2"/>
    </vehicle>
    <vehicle id="1_30" depart="24.20" departLane="best" departPos="base" departSpeed="max" type="DefaultCar">
        <route edges="-gneE3 -gneE0"/>
    </vehicle>
    <vehicle id="1_31" depart="25.00" departLane="best" departPos="base" departSpeed="max" type="DefaultCar">
        <route edges="-gneE3 gneE1"/>
    </vehicle>
    <vehicle id="1_32" depart="25.80" departLane="best" departPos="base" departSpeed="max" type="DefaultCar">
        <route edges="-gneE3 gneE1"/>
    </vehicle>
    <vehicle id="1_33" depart="26.60" departLane="best" departPos="base" departSpeed="max" type="DefaultCar">
        <route edges="gneE0 gneE3"/>
    </vehicle>
    <vehicle id="1_34" depart="27.40" departLane="best" departPos="base" departSpeed="max" type="DefaultCar">
        <route edges="-gneE2 gneE3"/>
    </vehicle>
    <vehicle id="1_35" depart="28.20" departLane="best" departPos="base" departSpeed="max" type="DefaultCar">
        <route edges="gneE0 gneE2"/>
    </vehicle>
    <vehicle id="1_37" depart="29.80" departLane="best" departPos="base" departSpeed="max" type="DefaultCar">
        <route edges="-gneE1 gneE2"/>
    </vehicle>
    <vehicle id="1_50" depart="40.20" departLane="best" departPos="base" departSpeed="max" type="DefaultCar">
        <route edges="-gneE2 gneE1"/>
    </vehicle>
    <vehicle id="1_52" depart="41.80" departLane="best" departPos="base" departSpeed="max" type="DefaultCar">
        <route edges="-gneE2 gneE1"/>
    </vehicle>
    <vehicle id="1_53" depart="42.60" departLane="best" departPos="base" departSpeed="max" type="DefaultCar">
        <route edges="-gneE2 gneE3"/>
    </vehicle>
    <vehicle id="1_54" depart="43.40" departLane="best" departPos="base" departSpeed="max" type="DefaultCar">
        <route edges="-gneE2 gneE1"/>
    </vehicle>
    <vehicle id="1_55" depart="44.20" departLane="best" departPos="base" departSpeed="max" type="DefaultCar">
        <route edges="gneE0 gneE3"/>
    </vehicle>
    <vehicle id="1_56" depart="45.00" departLane="best" departPos="base" departSpeed="max" type="DefaultCar">
        <route edges="-gneE2 gneE1"/>
    </vehicle>
    <vehicle id="1_57" depart="45.80" departLane="best" departPos="base" departSpeed="max" type="DefaultCar">
        <route edges="-gneE2 -gneE0"/>
    </vehicle>
    <vehicle id="1_58" depart="46.60" departLane="best" departPos="base" departSpeed="max" type="DefaultCar">
        <route edges="gneE0 gneE1"/>
    </vehicle>
    <vehicle id="1_59" depart="47.40" departLane="best" departPos="base" departSpeed="max" type="DefaultCar">
        <route edges="-gneE2 gneE3"/>
    </vehicle>
    <vehicle id="1_61" depart="49.00" departLane="best" departPos="base" departSpeed="max" type="DefaultCar">
        <route edges="gneE0 gneE3"/>
    </vehicle>
    <vehicle id="1_62" depart="49.80" departLane="best" departPos="base" departSpeed="max" type="DefaultCar">
        <route edges="-gneE1 gneE2"/>
    </vehicle>
    <vehicle id="1_63" depart="50.60" departLane="best" departPos="base" departSpeed="max" type="DefaultCar">
        <route edges="-gneE2 gneE1"/>
    </vehicle>
    <vehicle id="1_65" depart="52.20" departLane="best" departPos="base" departSpeed="max" type="DefaultCar">
        <route edges="gneE0 gneE2"/>
    </vehicle>
    <vehicle id="1_66" depart="53.00" departLane="best" departPos="base" departSpeed="max" type="DefaultCar">
        <route edges="-gneE1 -gneE0"/>
    </vehicle>
    <vehicle id="1_67" depart="53.80" departLane="best" departPos="base" departSpeed="max" type="DefaultCar">
        <route edges="-gneE1 gneE3"/>
    </vehicle>
    <vehicle id="1_68" depart="54.60" departLane="best" departPos="base" departSpeed="max" type="DefaultCar">
        <route edges="-gneE1 gneE2"/>
    </vehicle>
    <vehicle id="1_69" depart="55.40" departLane="best" departPos="base" departSpeed="max" type="DefaultCar">
        <route edges="-gneE2 gneE1"/>
    </vehicle>
    <vehicle id="1_70" depart="56.20" departLane="best" departPos="base" departSpeed="max" type="DefaultCar">
        <route edges="-gneE1 -gneE0"/>
    </vehicle>
    <vehicle id="1_73" depart="58.60" departLane="best" departPos="base" departSpeed="max" type="DefaultCar">
        <route edges="-gneE3 -gneE0"/>
    </vehicle>
    <vehicle id="1_77" depart="61.80" departLane="best" departPos="base" departSpeed="max" type="DefaultCar">
        <route edges="-gneE1 gneE2"/>
    </vehicle>
    <vehicle id="1_78" depart="62.60" departLane="best" departPos="base" departSpeed="max" type="DefaultCar">
        <route edges="gneE0 gneE3"/>
    </vehicle>
    <vehicle id="1_79" depart="63.40" departLane="best" departPos="base" departSpeed="max" type="DefaultCar">
        <route edges="-gneE1 gneE3"/>
    </vehicle>
    <vehicle id="1_80" depart="64.20" departLane="best" departPos="base" departSpeed="max" type="DefaultCar">
        <route edges="gneE0 gneE2"/>
    </vehicle>
    <vehicle id="1_81" depart="65.00" departLane="best" departPos="base" departSpeed="max" type="DefaultCar">
        <route edges="-gneE1 -gneE0"/>
    </vehicle>
    <vehicle id="1_82" depart="65.80" departLane="best" departPos="base" departSpeed="max" type="DefaultCar">
        <route edges="gneE0 gneE1"/>
    </vehicle>
    <vehicle id="1_83" depart="66.60" departLane="best" departPos="base" departSpeed="max" type="DefaultCar">
        <route edges="-gneE1 -gneE0"/>
    </vehicle>
    <vehicle id="1_86" depart="69.00" departLane="best" departPos="base" departSpeed="max" type="DefaultCar">
        <route edges="-gneE2 gneE3"/>
    </vehicle>
    <vehicle id="1_87" depart="69.80" departLane="best" departPos="base" departSpeed="max" type="DefaultCar">
        <route edges="gneE0 gneE1"/>
    </vehicle>
    <vehicle id="1_100" depart="80.20" departLane="best" departPos="base" departSpeed="max" type="DefaultCar">
        <route edges="-gneE1 gneE2"/>
    </vehicle>
    <vehicle id="1_101" depart="81.00" departLane="best" departPos="base" departSpeed="max" type="DefaultCar">
        <route edges="-gneE2 gneE1"/>
    </vehicle>
    <vehicle id="1_102" depart="81.80" departLane="best" departPos="base" departSpeed="max" type="DefaultCar">
        <route edges="-gneE2 gneE3"/>
    </vehicle>
    <vehicle id="1_104" depart="83.40" departLane="best" departPos="base" departSpeed="max" type="DefaultCar">
        <route edges="-gneE1 -gneE0"/>
    </vehicle>
    <vehicle id="1_105" depart="84.20" departLane="best" departPos="base" departSpeed="max" type="DefaultCar">
        <route edges="-gneE1 gneE3"/>
    </vehicle>
    <vehicle id="1_106" depart="85.00" departLane="best" departPos="base" departSpeed="max" type="DefaultCar">
        <route edges="gneE0 gneE3"/>
    </vehicle>
    <vehicle id="1_107" depart="85.80" departLane="best" departPos="base" departSpeed="max" type="DefaultCar">
        <route edges="-gneE1 gneE3"/>
    </vehicle>
    <vehicle id="1_109" depart="87.40" departLane="best" departPos="base" departSpeed="max" type="DefaultCar">
        <route edges="-gneE2 -gneE0"/>
    </vehicle>
    <vehicle id="1_111" depart="89.00" departLane="best" departPos="base" departSpeed="max" type="DefaultCar">
        <route edges="-gneE3 -gneE0"/>
    </vehicle>
    <vehicle id="1_112" depart="89.80" departLane="best" departPos="base" departSpeed="max" type="DefaultCar">
        <route edges="-gneE1 gneE3"/>
    </vehicle>
    <vehicle id="1_113" depart="90.60" departLane="best" departPos="base" departSpeed="max" type="DefaultCar">
        <route edges="-gneE1 gneE2"/>
    </vehicle>
    <vehicle id="1_114" depart="91.40" departLane="best" departPos="base" departSpeed="max" type="DefaultCar">
        <route edges="gneE0 gneE3"/>
    </vehicle>
    <vehicle id="1_115" depart="92.20" departLane="best" departPos="base" departSpeed="max" type="DefaultCar">
        <route edges="-gneE1 gneE2"/>
    </vehicle>
    <vehicle id="1_116" depart="93.00" departLane="best" departPos="base" departSpeed="max" type="DefaultCar">
        <route edges="gneE0 gneE1"/>
    </vehicle>
    <vehicle id="1_117" depart="93.80" departLane="best" departPos="base" departSpeed="max" type="DefaultCar">
        <route edges="gneE0 gneE2"/>
    </vehicle>
    <vehicle id="1_118" depart="94.60" departLane="best" departPos="base" departSpeed="max" type="DefaultCar">
        <route edges="gneE0 gneE2"/>
    </vehicle>
    <vehicle id="1_119" depart="95.40" departLane="best" departPos="base" departSpeed="max" type="DefaultCar">
        <route edges="-gneE1 -gneE0"/>
    </vehicle>
    <vehicle id="1_120" depart="96.20" departLane="best" departPos="base" departSpeed="max" type="DefaultCar">
        <route edges="gneE0 gneE3"/>
    </vehicle>
    <vehicle id="1_121" depart="97.00" departLane="best" departPos="base" departSpeed="max" type="DefaultCar">
        <route edges="-gneE1 -gneE0"/>
    </vehicle>
    <vehicle id="1_122" depart="97.80" departLane="best" departPos="base" departSpeed="max" type="DefaultCar">
        <route edges="-gneE1 gneE2"/>
    </vehicle>
    <vehicle id="1_123" depart="98.60" departLane="best" departPos="base" departSpeed="max" type="DefaultCar">
        <route edges="gneE0 gneE3"/>
    </vehicle>
    <vehicle id="1_124" depart="99.40" departLane="best" departPos="base" departSpeed="max" type="DefaultCar">
        <route edges="-gneE1 -gneE0"/>
    </vehicle>
    <vehicle id="1_125" depart="100.20" departLane="best" departPos="base" departSpeed="max" type="DefaultCar">
        <route edges="-gneE3 gneE2"/>
    </vehicle>
    <vehicle id="1_126" depart="101.00" departLane="best" departPos="base" departSpeed="max" type="DefaultCar">
        <route edges="-gneE2 gneE1"/>
    </vehicle>
    <vehicle id="1_127" depart="101.80" departLane="best" departPos="base" departSpeed="max" type="DefaultCar">
        <route edges="gneE0 gneE3"/>
    </vehicle>
    <vehicle id="1_128" depart="102.60" departLane="best" departPos="base" departSpeed="max" type="DefaultCar">
        <route edges="-gneE2 gneE3"/>
    </vehicle>
    <vehicle id="1_129" depart="103.40" departLane="best" departPos="base" departSpeed="max" type="DefaultCar">
        <route edges="-gneE3 gneE1"/>
    </vehicle>
    <vehicle id="1_131" depart="105.00" departLane="best" departPos="base" departSpeed="max" type="DefaultCar">
        <route edges="-gneE1 -gneE0"/>
    </vehicle>
    <vehicle id="1_132" depart="105.80" departLane="best" departPos="base" departSpeed="max" type="DefaultCar">
        <route edges="-gneE3 -gneE0"/>
    </vehicle>
    <vehicle id="1_133" depart="106.60" departLane="best" departPos="base" departSpeed="max" type="DefaultCar">
        <route edges="-gneE1 gneE3"/>
    </vehicle>
    <vehicle id="1_136" depart="109.00" departLane="best" departPos="base" departSpeed="max" type="DefaultCar">
        <route edges="-gneE3 gneE2"/>
    </vehicle>
    <vehicle id="1_137" depart="109.80" departLane="best" departPos="base" departSpeed="max" type="DefaultCar">
        <route edges="-gneE3 gneE1"/>
    </vehicle>
</routes>