<?xml version="1.0" encoding="UTF-8"?>

<!-- generated on Wed Sep 19 03:47:55 2018 by SUMO duarouter Version UNKNOWN
<configuration xmlns:xsi="http://www.w3.org/2001/XMLSchema-instance" xsi:noNamespaceSchemaLocation="http://sumo.dlr.de/xsd/duarouterConfiguration.xsd">

    <input>
        <net-file value="test.net.xml"/>
        <route-files value="trips.trips.xml"/>
    </input>

    <output>
        <output-file value="temp0.rou.xml"/>
        <alternatives-output value="temp0.rou.alt.xml"/>
    </output>

    <processing>
        <ignore-errors value="true"/>
    </processing>

    <time>
        <begin value="0"/>
        <end value="0.1"/>
    </time>

    <report>
        <no-warnings value="true"/>
        <no-step-log value="true"/>
    </report>

</configuration>
-->

<routes xmlns:xsi="http://www.w3.org/2001/XMLSchema-instance" xsi:noNamespaceSchemaLocation="http://sumo.dlr.de/xsd/routes_file.xsd">
    <vType id="DefaultCar" speedFactor="normc(1,0.15)"/>
    <vType id="EgoCar" color="0,1,0"/>
<vehicle id="ego" depart="0.00" departLane="random" departPos="base" departSpeed="max" type="EgoCar">
        <route edges="-gneE2 gneE1"/>
    </vehicle>
    <vehicle id="1" depart="0.01" departLane="best" departPos="random_free" departSpeed="max" type="DefaultCar">
        <route edges="-gneE3 -gneE0"/>
    </vehicle>
    <vehicle id="4" depart="0.03" departLane="best" departPos="random_free" departSpeed="max" type="DefaultCar">
        <route edges="-gneE3 gneE2"/>
    </vehicle>
    <vehicle id="6" depart="0.04" departLane="best" departPos="random_free" departSpeed="max" type="DefaultCar">
        <route edges="-gneE1 gneE2"/>
    </vehicle>
    <vehicle id="7" depart="0.05" departLane="best" departPos="random_free" departSpeed="max" type="DefaultCar">
        <route edges="-gneE1 gneE2"/>
    </vehicle>
    <vehicle id="8" depart="0.06" departLane="best" departPos="random_free" departSpeed="max" type="DefaultCar">
        <route edges="-gneE1 -gneE0"/>
    </vehicle>
    <vehicle id="9" depart="0.06" departLane="best" departPos="random_free" departSpeed="max" type="DefaultCar">
        <route edges="-gneE1 gneE2"/>
    </vehicle>
    <vehicle id="11" depart="0.08" departLane="best" departPos="random_free" departSpeed="max" type="DefaultCar">
        <route edges="-gneE1 gneE2"/>
    </vehicle>
    <vehicle id="12" depart="0.08" departLane="best" departPos="random_free" departSpeed="max" type="DefaultCar">
        <route edges="-gneE3 gneE1"/>
    </vehicle>
    <vehicle id="13" depart="0.09" departLane="best" departPos="random_free" departSpeed="max" type="DefaultCar">
        <route edges="-gneE3 -gneE0"/>
    </vehicle>
    <vehicle id="1_0" depart="0.20" departLane="best" departPos="base" departSpeed="max" type="DefaultCar">
        <route edges="-gneE1 gneE2"/>
    </vehicle>
    <vehicle id="1_1" depart="0.40" departLane="best" departPos="base" departSpeed="max" type="DefaultCar">
        <route edges="gneE0 gneE2"/>
    </vehicle>
    <vehicle id="1_2" depart="0.60" departLane="best" departPos="base" departSpeed="max" type="DefaultCar">
        <route edges="-gneE3 gneE2"/>
    </vehicle>
    <vehicle id="1_4" depart="1.00" departLane="best" departPos="base" departSpeed="max" type="DefaultCar">
        <route edges="-gneE2 gneE3"/>
    </vehicle>
    <vehicle id="1_6" depart="1.40" departLane="best" departPos="base" departSpeed="max" type="DefaultCar">
        <route edges="-gneE2 gneE1"/>
    </vehicle>
    <vehicle id="1_9" depart="2.00" departLane="best" departPos="base" departSpeed="max" type="DefaultCar">
        <route edges="-gneE3 -gneE0"/>
    </vehicle>
    <vehicle id="1_10" depart="2.20" departLane="best" departPos="base" departSpeed="max" type="DefaultCar">
        <route edges="-gneE2 -gneE0"/>
    </vehicle>
    <vehicle id="1_11" depart="2.40" departLane="best" departPos="base" departSpeed="max" type="DefaultCar">
        <route edges="gneE0 gneE1"/>
    </vehicle>
    <vehicle id="1_12" depart="2.60" departLane="best" departPos="base" departSpeed="max" type="DefaultCar">
        <route edges="-gneE2 gneE3"/>
    </vehicle>
    <vehicle id="1_14" depart="3.00" departLane="best" departPos="base" departSpeed="max" type="DefaultCar">
        <route edges="-gneE1 -gneE0"/>
    </vehicle>
    <vehicle id="1_16" depart="3.40" departLane="best" departPos="base" departSpeed="max" type="DefaultCar">
        <route edges="gneE0 gneE3"/>
    </vehicle>
    <vehicle id="1_17" depart="3.60" departLane="best" departPos="base" departSpeed="max" type="DefaultCar">
        <route edges="-gneE1 gneE2"/>
    </vehicle>
    <vehicle id="1_18" depart="3.80" departLane="best" departPos="base" departSpeed="max" type="DefaultCar">
        <route edges="-gneE2 -gneE0"/>
    </vehicle>
    <vehicle id="1_19" depart="4.00" departLane="best" departPos="base" departSpeed="max" type="DefaultCar">
        <route edges="-gneE3 gneE2"/>
    </vehicle>
    <vehicle id="1_20" depart="4.20" departLane="best" departPos="base" departSpeed="max" type="DefaultCar">
        <route edges="-gneE2 -gneE0"/>
    </vehicle>
    <vehicle id="1_21" depart="4.40" departLane="best" departPos="base" departSpeed="max" type="DefaultCar">
        <route edges="-gneE1 -gneE0"/>
    </vehicle>
    <vehicle id="1_22" depart="4.60" departLane="best" departPos="base" departSpeed="max" type="DefaultCar">
        <route edges="-gneE3 gneE1"/>
    </vehicle>
    <vehicle id="1_24" depart="5.00" departLane="best" departPos="base" departSpeed="max" type="DefaultCar">
        <route edges="gneE0 gneE1"/>
    </vehicle>
    <vehicle id="1_25" depart="5.20" departLane="best" departPos="base" departSpeed="max" type="DefaultCar">
        <route edges="-gneE3 gneE2"/>
    </vehicle>
    <vehicle id="1_26" depart="5.40" departLane="best" departPos="base" departSpeed="max" type="DefaultCar">
        <route edges="-gneE1 gneE3"/>
    </vehicle>
    <vehicle id="1_27" depart="5.60" departLane="best" departPos="base" departSpeed="max" type="DefaultCar">
        <route edges="-gneE1 -gneE0"/>
    </vehicle>
    <vehicle id="1_28" depart="5.80" departLane="best" departPos="base" departSpeed="max" type="DefaultCar">
        <route edges="gneE0 gneE1"/>
    </vehicle>
    <vehicle id="1_29" depart="6.00" departLane="best" departPos="base" departSpeed="max" type="DefaultCar">
        <route edges="-gneE2 gneE3"/>
    </vehicle>
    <vehicle id="1_30" depart="6.20" departLane="best" departPos="base" departSpeed="max" type="DefaultCar">
        <route edges="-gneE2 gneE1"/>
    </vehicle>
    <vehicle id="1_32" depart="6.60" departLane="best" departPos="base" departSpeed="max" type="DefaultCar">
        <route edges="gneE0 gneE2"/>
    </vehicle>
    <vehicle id="1_34" depart="7.00" departLane="best" departPos="base" departSpeed="max" type="DefaultCar">
        <route edges="-gneE3 gneE1"/>
    </vehicle>
    <vehicle id="1_35" depart="7.20" departLane="best" departPos="base" departSpeed="max" type="DefaultCar">
        <route edges="gneE0 gneE3"/>
    </vehicle>
    <vehicle id="1_36" depart="7.40" departLane="best" departPos="base" departSpeed="max" type="DefaultCar">
        <route edges="-gneE3 gneE2"/>
    </vehicle>
    <vehicle id="1_37" depart="7.60" departLane="best" departPos="base" departSpeed="max" type="DefaultCar">
        <route edges="-gneE1 -gneE0"/>
    </vehicle>
    <vehicle id="1_38" depart="7.80" departLane="best" departPos="base" departSpeed="max" type="DefaultCar">
        <route edges="gneE0 gneE3"/>
    </vehicle>
    <vehicle id="1_39" depart="8.00" departLane="best" departPos="base" departSpeed="max" type="DefaultCar">
        <route edges="gneE0 gneE2"/>
    </vehicle>
    <vehicle id="1_40" depart="8.20" departLane="best" departPos="base" departSpeed="max" type="DefaultCar">
        <route edges="-gneE1 -gneE0"/>
    </vehicle>
    <vehicle id="1_41" depart="8.40" departLane="best" departPos="base" departSpeed="max" type="DefaultCar">
        <route edges="-gneE2 gneE1"/>
    </vehicle>
    <vehicle id="1_44" depart="9.00" departLane="best" departPos="base" departSpeed="max" type="DefaultCar">
        <route edges="-gneE2 -gneE0"/>
    </vehicle>
    <vehicle id="1_45" depart="9.20" departLane="best" departPos="base" departSpeed="max" type="DefaultCar">
        <route edges="gneE0 gneE2"/>
    </vehicle>
    <vehicle id="1_46" depart="9.40" departLane="best" departPos="base" departSpeed="max" type="DefaultCar">
        <route edges="-gneE2 gneE3"/>
    </vehicle>
    <vehicle id="1_48" depart="9.80" departLane="best" departPos="base" departSpeed="max" type="DefaultCar">
        <route edges="-gneE3 -gneE0"/>
    </vehicle>
    <vehicle id="1_50" depart="10.20" departLane="best" departPos="base" departSpeed="max" type="DefaultCar">
        <route edges="gneE0 gneE2"/>
    </vehicle>
    <vehicle id="1_51" depart="10.40" departLane="best" departPos="base" departSpeed="max" type="DefaultCar">
        <route edges="-gneE3 gneE1"/>
    </vehicle>
    <vehicle id="1_52" depart="10.60" departLane="best" departPos="base" departSpeed="max" type="DefaultCar">
        <route edges="gneE0 gneE3"/>
    </vehicle>
    <vehicle id="1_54" depart="11.00" departLane="best" departPos="base" departSpeed="max" type="DefaultCar">
        <route edges="-gneE1 gneE2"/>
    </vehicle>
    <vehicle id="1_55" depart="11.20" departLane="best" departPos="base" departSpeed="max" type="DefaultCar">
        <route edges="-gneE3 gneE2"/>
    </vehicle>
    <vehicle id="1_57" depart="11.60" departLane="best" departPos="base" departSpeed="max" type="DefaultCar">
        <route edges="-gneE1 gneE3"/>
    </vehicle>
    <vehicle id="1_59" depart="12.00" departLane="best" departPos="base" departSpeed="max" type="DefaultCar">
        <route edges="gneE0 gneE3"/>
    </vehicle>
    <vehicle id="1_60" depart="12.20" departLane="best" departPos="base" departSpeed="max" type="DefaultCar">
        <route edges="-gneE2 -gneE0"/>
    </vehicle>
    <vehicle id="1_61" depart="12.40" departLane="best" departPos="base" departSpeed="max" type="DefaultCar">
        <route edges="-gneE3 -gneE0"/>
    </vehicle>
    <vehicle id="1_62" depart="12.60" departLane="best" departPos="base" departSpeed="max" type="DefaultCar">
        <route edges="gneE0 gneE2"/>
    </vehicle>
    <vehicle id="1_63" depart="12.80" departLane="best" departPos="base" departSpeed="max" type="DefaultCar">
        <route edges="-gneE1 gneE3"/>
    </vehicle>
    <vehicle id="1_64" depart="13.00" departLane="best" departPos="base" departSpeed="max" type="DefaultCar">
        <route edges="gneE0 gneE1"/>
    </vehicle>
    <vehicle id="1_66" depart="13.40" departLane="best" departPos="base" departSpeed="max" type="DefaultCar">
        <route edges="-gneE2 -gneE0"/>
    </vehicle>
    <vehicle id="1_67" depart="13.60" departLane="best" departPos="base" departSpeed="max" type="DefaultCar">
        <route edges="-gneE1 gneE2"/>
    </vehicle>
    <vehicle id="1_68" depart="13.80" departLane="best" departPos="base" departSpeed="max" type="DefaultCar">
        <route edges="-gneE2 gneE3"/>
    </vehicle>
    <vehicle id="1_69" depart="14.00" departLane="best" departPos="base" departSpeed="max" type="DefaultCar">
        <route edges="-gneE3 -gneE0"/>
    </vehicle>
    <vehicle id="1_70" depart="14.20" departLane="best" departPos="base" departSpeed="max" type="DefaultCar">
        <route edges="-gneE2 -gneE0"/>
    </vehicle>
    <vehicle id="1_71" depart="14.40" departLane="best" departPos="base" departSpeed="max" type="DefaultCar">
        <route edges="-gneE1 gneE2"/>
    </vehicle>
    <vehicle id="1_73" depart="14.80" departLane="best" departPos="base" departSpeed="max" type="DefaultCar">
        <route edges="-gneE3 -gneE0"/>
    </vehicle>
    <vehicle id="1_74" depart="15.00" departLane="best" departPos="base" departSpeed="max" type="DefaultCar">
        <route edges="-gneE1 gneE3"/>
    </vehicle>
    <vehicle id="1_75" depart="15.20" departLane="best" departPos="base" departSpeed="max" type="DefaultCar">
        <route edges="-gneE2 gneE3"/>
    </vehicle>
    <vehicle id="1_76" depart="15.40" departLane="best" departPos="base" departSpeed="max" type="DefaultCar">
        <route edges="-gneE3 -gneE0"/>
    </vehicle>
    <vehicle id="1_77" depart="15.60" departLane="best" departPos="base" departSpeed="max" type="DefaultCar">
        <route edges="gneE0 gneE1"/>
    </vehicle>
    <vehicle id="1_79" depart="16.00" departLane="best" departPos="base" departSpeed="max" type="DefaultCar">
        <route edges="gneE0 gneE2"/>
    </vehicle>
    <vehicle id="1_80" depart="16.20" departLane="best" departPos="base" departSpeed="max" type="DefaultCar">
        <route edges="gneE0 gneE3"/>
    </vehicle>
    <vehicle id="1_81" depart="16.40" departLane="best" departPos="base" departSpeed="max" type="DefaultCar">
        <route edges="-gneE2 gneE3"/>
    </vehicle>
    <vehicle id="1_82" depart="16.60" departLane="best" departPos="base" departSpeed="max" type="DefaultCar">
        <route edges="-gneE1 -gneE0"/>
    </vehicle>
    <vehicle id="1_83" depart="16.80" departLane="best" departPos="base" departSpeed="max" type="DefaultCar">
        <route edges="-gneE1 gneE2"/>
    </vehicle>
    <vehicle id="1_84" depart="17.00" departLane="best" departPos="base" departSpeed="max" type="DefaultCar">
        <route edges="-gneE3 gneE1"/>
    </vehicle>
    <vehicle id="1_85" depart="17.20" departLane="best" departPos="base" departSpeed="max" type="DefaultCar">
        <route edges="-gneE1 -gneE0"/>
    </vehicle>
    <vehicle id="1_86" depart="17.40" departLane="best" departPos="base" departSpeed="max" type="DefaultCar">
        <route edges="gneE0 gneE2"/>
    </vehicle>
    <vehicle id="1_87" depart="17.60" departLane="best" departPos="base" departSpeed="max" type="DefaultCar">
        <route edges="-gneE3 -gneE0"/>
    </vehicle>
    <vehicle id="1_88" depart="17.80" departLane="best" departPos="base" departSpeed="max" type="DefaultCar">
        <route edges="-gneE3 gneE2"/>
    </vehicle>
    <vehicle id="1_89" depart="18.00" departLane="best" departPos="base" departSpeed="max" type="DefaultCar">
        <route edges="-gneE2 gneE1"/>
    </vehicle>
    <vehicle id="1_90" depart="18.20" departLane="best" departPos="base" departSpeed="max" type="DefaultCar">
        <route edges="gneE0 gneE1"/>
    </vehicle>
    <vehicle id="1_91" depart="18.40" departLane="best" departPos="base" departSpeed="max" type="DefaultCar">
        <route edges="-gneE2 -gneE0"/>
    </vehicle>
    <vehicle id="1_92" depart="18.60" departLane="best" departPos="base" departSpeed="max" type="DefaultCar">
        <route edges="-gneE2 gneE3"/>
    </vehicle>
    <vehicle id="1_93" depart="18.80" departLane="best" departPos="base" departSpeed="max" type="DefaultCar">
        <route edges="-gneE1 gneE2"/>
    </vehicle>
    <vehicle id="1_94" depart="19.00" departLane="best" departPos="base" departSpeed="max" type="DefaultCar">
        <route edges="gneE0 gneE2"/>
    </vehicle>
    <vehicle id="1_95" depart="19.20" departLane="best" departPos="base" departSpeed="max" type="DefaultCar">
        <route edges="-gneE2 -gneE0"/>
    </vehicle>
    <vehicle id="1_97" depart="19.60" departLane="best" departPos="base" departSpeed="max" type="DefaultCar">
        <route edges="-gneE3 -gneE0"/>
    </vehicle>
    <vehicle id="1_98" depart="19.80" departLane="best" departPos="base" departSpeed="max" type="DefaultCar">
        <route edges="-gneE2 gneE1"/>
    </vehicle>
    <vehicle id="1_99" depart="20.00" departLane="best" departPos="base" departSpeed="max" type="DefaultCar">
        <route edges="-gneE1 gneE3"/>
    </vehicle>
    <vehicle id="1_102" depart="20.60" departLane="best" departPos="base" departSpeed="max" type="DefaultCar">
        <route edges="-gneE1 -gneE0"/>
    </vehicle>
    <vehicle id="1_103" depart="20.80" departLane="best" departPos="base" departSpeed="max" type="DefaultCar">
        <route edges="gneE0 gneE3"/>
    </vehicle>
    <vehicle id="1_106" depart="21.40" departLane="best" departPos="base" departSpeed="max" type="DefaultCar">
        <route edges="-gneE3 gneE1"/>
    </vehicle>
    <vehicle id="1_108" depart="21.80" departLane="best" departPos="base" departSpeed="max" type="DefaultCar">
        <route edges="-gneE2 gneE1"/>
    </vehicle>
    <vehicle id="1_109" depart="22.00" departLane="best" departPos="base" departSpeed="max" type="DefaultCar">
        <route edges="-gneE2 -gneE0"/>
    </vehicle>
    <vehicle id="1_111" depart="22.40" departLane="best" departPos="base" departSpeed="max" type="DefaultCar">
        <route edges="-gneE1 gneE3"/>
    </vehicle>
    <vehicle id="1_112" depart="22.60" departLane="best" departPos="base" departSpeed="max" type="DefaultCar">
        <route edges="-gneE2 gneE3"/>
    </vehicle>
    <vehicle id="1_113" depart="22.80" departLane="best" departPos="base" departSpeed="max" type="DefaultCar">
        <route edges="-gneE2 gneE1"/>
    </vehicle>
    <vehicle id="1_114" depart="23.00" departLane="best" departPos="base" departSpeed="max" type="DefaultCar">
        <route edges="gneE0 gneE2"/>
    </vehicle>
    <vehicle id="1_115" depart="23.20" departLane="best" departPos="base" departSpeed="max" type="DefaultCar">
        <route edges="-gneE3 gneE1"/>
    </vehicle>
    <vehicle id="1_117" depart="23.60" departLane="best" departPos="base" departSpeed="max" type="DefaultCar">
        <route edges="gneE0 gneE3"/>
    </vehicle>
    <vehicle id="1_118" depart="23.80" departLane="best" departPos="base" departSpeed="max" type="DefaultCar">
        <route edges="-gneE1 -gneE0"/>
    </vehicle>
    <vehicle id="1_120" depart="24.20" departLane="best" departPos="base" departSpeed="max" type="DefaultCar">
        <route edges="-gneE2 -gneE0"/>
    </vehicle>
    <vehicle id="1_121" depart="24.40" departLane="best" departPos="base" departSpeed="max" type="DefaultCar">
        <route edges="gneE0 gneE3"/>
    </vehicle>
    <vehicle id="1_122" depart="24.60" departLane="best" departPos="base" departSpeed="max" type="DefaultCar">
        <route edges="-gneE1 -gneE0"/>
    </vehicle>
    <vehicle id="1_123" depart="24.80" departLane="best" departPos="base" departSpeed="max" type="DefaultCar">
        <route edges="-gneE2 gneE3"/>
    </vehicle>
    <vehicle id="1_124" depart="25.00" departLane="best" departPos="base" departSpeed="max" type="DefaultCar">
        <route edges="gneE0 gneE2"/>
    </vehicle>
    <vehicle id="1_125" depart="25.20" departLane="best" departPos="base" departSpeed="max" type="DefaultCar">
        <route edges="-gneE3 gneE2"/>
    </vehicle>
    <vehicle id="1_126" depart="25.40" departLane="best" departPos="base" departSpeed="max" type="DefaultCar">
        <route edges="-gneE3 gneE1"/>
    </vehicle>
    <vehicle id="1_128" depart="25.80" departLane="best" departPos="base" departSpeed="max" type="DefaultCar">
        <route edges="-gneE2 -gneE0"/>
    </vehicle>
    <vehicle id="1_129" depart="26.00" departLane="best" departPos="base" departSpeed="max" type="DefaultCar">
        <route edges="-gneE1 -gneE0"/>
    </vehicle>
    <vehicle id="1_130" depart="26.20" departLane="best" departPos="base" departSpeed="max" type="DefaultCar">
        <route edges="-gneE3 gneE1"/>
    </vehicle>
    <vehicle id="1_131" depart="26.40" departLane="best" departPos="base" departSpeed="max" type="DefaultCar">
        <route edges="-gneE2 gneE3"/>
    </vehicle>
    <vehicle id="1_132" depart="26.60" departLane="best" departPos="base" departSpeed="max" type="DefaultCar">
        <route edges="-gneE1 -gneE0"/>
    </vehicle>
    <vehicle id="1_134" depart="27.00" departLane="best" departPos="base" departSpeed="max" type="DefaultCar">
        <route edges="gneE0 gneE2"/>
    </vehicle>
    <vehicle id="1_135" depart="27.20" departLane="best" departPos="base" departSpeed="max" type="DefaultCar">
        <route edges="-gneE3 gneE2"/>
    </vehicle>
    <vehicle id="1_136" depart="27.40" departLane="best" departPos="base" departSpeed="max" type="DefaultCar">
        <route edges="-gneE2 -gneE0"/>
    </vehicle>
    <vehicle id="1_137" depart="27.60" departLane="best" departPos="base" departSpeed="max" type="DefaultCar">
        <route edges="-gneE2 gneE3"/>
    </vehicle>
    <vehicle id="1_138" depart="27.80" departLane="best" departPos="base" departSpeed="max" type="DefaultCar">
        <route edges="-gneE3 -gneE0"/>
    </vehicle>
    <vehicle id="1_139" depart="28.00" departLane="best" departPos="base" departSpeed="max" type="DefaultCar">
        <route edges="-gneE2 gneE3"/>
    </vehicle>
    <vehicle id="1_141" depart="28.40" departLane="best" departPos="base" departSpeed="max" type="DefaultCar">
        <route edges="gneE0 gneE2"/>
    </vehicle>
    <vehicle id="1_142" depart="28.60" departLane="best" departPos="base" departSpeed="max" type="DefaultCar">
        <route edges="gneE0 gneE2"/>
    </vehicle>
    <vehicle id="1_143" depart="28.80" departLane="best" departPos="base" departSpeed="max" type="DefaultCar">
        <route edges="-gneE3 gneE1"/>
    </vehicle>
    <vehicle id="1_144" depart="29.00" departLane="best" departPos="base" departSpeed="max" type="DefaultCar">
        <route edges="-gneE3 gneE1"/>
    </vehicle>
    <vehicle id="1_145" depart="29.20" departLane="best" departPos="base" departSpeed="max" type="DefaultCar">
        <route edges="-gneE1 -gneE0"/>
    </vehicle>
    <vehicle id="1_146" depart="29.40" departLane="best" departPos="base" departSpeed="max" type="DefaultCar">
        <route edges="-gneE3 gneE1"/>
    </vehicle>
    <vehicle id="1_147" depart="29.60" departLane="best" departPos="base" departSpeed="max" type="DefaultCar">
        <route edges="-gneE1 gneE2"/>
    </vehicle>
    <vehicle id="1_148" depart="29.80" departLane="best" departPos="base" departSpeed="max" type="DefaultCar">
        <route edges="-gneE3 -gneE0"/>
    </vehicle>
</routes>