<?xml version="1.0" encoding="UTF-8"?>

<!-- generated on Wed Sep 19 03:07:58 2018 by SUMO duarouter Version UNKNOWN
<configuration xmlns:xsi="http://www.w3.org/2001/XMLSchema-instance" xsi:noNamespaceSchemaLocation="http://sumo.dlr.de/xsd/duarouterConfiguration.xsd">

    <input>
        <net-file value="test.net.xml"/>
        <route-files value="trips.trips.xml"/>
    </input>

    <output>
        <output-file value="temp0.rou.xml"/>
        <alternatives-output value="temp0.rou.alt.xml"/>
    </output>

    <processing>
        <ignore-errors value="true"/>
    </processing>

    <time>
        <begin value="0"/>
        <end value="0.1"/>
    </time>

    <report>
        <no-warnings value="true"/>
        <no-step-log value="true"/>
    </report>

</configuration>
-->

<routes xmlns:xsi="http://www.w3.org/2001/XMLSchema-instance" xsi:noNamespaceSchemaLocation="http://sumo.dlr.de/xsd/routes_file.xsd">
    <vType id="DefaultCar" speedFactor="normc(1,0.15)"/>
    <vType id="EgoCar" color="0,1,0"/>
<vehicle id="ego" depart="0.00" departLane="random" departPos="base" departSpeed="max" type="EgoCar">
        <route edges="-gneE2 gneE3"/>
    </vehicle>
    <vehicle id="1" depart="0.01" departLane="best" departPos="random_free" departSpeed="max" type="DefaultCar">
        <route edges="gneE0 gneE3"/>
    </vehicle>
    <vehicle id="2" depart="0.01" departLane="best" departPos="random_free" departSpeed="max" type="DefaultCar">
        <route edges="-gneE1 gneE2"/>
    </vehicle>
    <vehicle id="3" depart="0.01" departLane="best" departPos="random_free" departSpeed="max" type="DefaultCar">
        <route edges="-gneE2 -gneE0"/>
    </vehicle>
    <vehicle id="4" depart="0.02" departLane="best" departPos="random_free" departSpeed="max" type="DefaultCar">
        <route edges="gneE0 gneE1"/>
    </vehicle>
    <vehicle id="5" depart="0.03" departLane="best" departPos="random_free" departSpeed="max" type="DefaultCar">
        <route edges="-gneE1 -gneE0"/>
    </vehicle>
    <vehicle id="6" depart="0.03" departLane="best" departPos="random_free" departSpeed="max" type="DefaultCar">
        <route edges="-gneE2 -gneE0"/>
    </vehicle>
    <vehicle id="7" depart="0.04" departLane="best" departPos="random_free" departSpeed="max" type="DefaultCar">
        <route edges="gneE0 gneE2"/>
    </vehicle>
    <vehicle id="9" depart="0.04" departLane="best" departPos="random_free" departSpeed="max" type="DefaultCar">
        <route edges="-gneE2 gneE3"/>
    </vehicle>
    <vehicle id="10" depart="0.05" departLane="best" departPos="random_free" departSpeed="max" type="DefaultCar">
        <route edges="gneE0 gneE3"/>
    </vehicle>
    <vehicle id="11" depart="0.05" departLane="best" departPos="random_free" departSpeed="max" type="DefaultCar">
        <route edges="-gneE2 gneE1"/>
    </vehicle>
    <vehicle id="12" depart="0.06" departLane="best" departPos="random_free" departSpeed="max" type="DefaultCar">
        <route edges="gneE0 gneE3"/>
    </vehicle>
    <vehicle id="13" depart="0.06" departLane="best" departPos="random_free" departSpeed="max" type="DefaultCar">
        <route edges="gneE0 gneE2"/>
    </vehicle>
    <vehicle id="14" depart="0.07" departLane="best" departPos="random_free" departSpeed="max" type="DefaultCar">
        <route edges="-gneE2 -gneE0"/>
    </vehicle>
    <vehicle id="15" depart="0.07" departLane="best" departPos="random_free" departSpeed="max" type="DefaultCar">
        <route edges="-gneE2 gneE1"/>
    </vehicle>
    <vehicle id="16" depart="0.08" departLane="best" departPos="random_free" departSpeed="max" type="DefaultCar">
        <route edges="-gneE2 gneE1"/>
    </vehicle>
    <vehicle id="18" depart="0.09" departLane="best" departPos="random_free" departSpeed="max" type="DefaultCar">
        <route edges="gneE0 gneE1"/>
    </vehicle>
    <vehicle id="1_0" depart="0.20" departLane="best" departPos="base" departSpeed="max" type="DefaultCar">
        <route edges="gneE0 gneE3"/>
    </vehicle>
    <vehicle id="1_1" depart="0.80" departLane="best" departPos="base" departSpeed="max" type="DefaultCar">
        <route edges="gneE0 gneE1"/>
    </vehicle>
    <vehicle id="1_3" depart="2.00" departLane="best" departPos="base" departSpeed="max" type="DefaultCar">
        <route edges="-gneE2 -gneE0"/>
    </vehicle>
    <vehicle id="1_7" depart="4.40" departLane="best" departPos="base" departSpeed="max" type="DefaultCar">
        <route edges="-gneE2 gneE3"/>
    </vehicle>
    <vehicle id="1_8" depart="5.00" departLane="best" departPos="base" departSpeed="max" type="DefaultCar">
        <route edges="-gneE3 gneE1"/>
    </vehicle>
    <vehicle id="1_9" depart="5.60" departLane="best" departPos="base" departSpeed="max" type="DefaultCar">
        <route edges="-gneE2 gneE3"/>
    </vehicle>
    <vehicle id="1_10" depart="6.20" departLane="best" departPos="base" departSpeed="max" type="DefaultCar">
        <route edges="-gneE1 gneE3"/>
    </vehicle>
    <vehicle id="1_11" depart="6.80" departLane="best" departPos="base" departSpeed="max" type="DefaultCar">
        <route edges="gneE0 gneE1"/>
    </vehicle>
    <vehicle id="1_14" depart="8.60" departLane="best" departPos="base" departSpeed="max" type="DefaultCar">
        <route edges="-gneE1 -gneE0"/>
    </vehicle>
    <vehicle id="1_16" depart="9.80" departLane="best" departPos="base" departSpeed="max" type="DefaultCar">
        <route edges="-gneE2 gneE1"/>
    </vehicle>
    <vehicle id="1_18" depart="11.00" departLane="best" departPos="base" departSpeed="max" type="DefaultCar">
        <route edges="-gneE3 -gneE0"/>
    </vehicle>
    <vehicle id="1_19" depart="11.60" departLane="best" departPos="base" departSpeed="max" type="DefaultCar">
        <route edges="-gneE1 gneE3"/>
    </vehicle>
    <vehicle id="1_20" depart="12.20" departLane="best" departPos="base" departSpeed="max" type="DefaultCar">
        <route edges="-gneE1 gneE2"/>
    </vehicle>
    <vehicle id="1_22" depart="13.40" departLane="best" departPos="base" departSpeed="max" type="DefaultCar">
        <route edges="-gneE2 gneE3"/>
    </vehicle>
    <vehicle id="1_24" depart="14.60" departLane="best" departPos="base" departSpeed="max" type="DefaultCar">
        <route edges="-gneE3 -gneE0"/>
    </vehicle>
    <vehicle id="1_25" depart="15.20" departLane="best" departPos="base" departSpeed="max" type="DefaultCar">
        <route edges="gneE0 gneE1"/>
    </vehicle>
    <vehicle id="1_26" depart="15.80" departLane="best" departPos="base" departSpeed="max" type="DefaultCar">
        <route edges="-gneE2 gneE3"/>
    </vehicle>
    <vehicle id="1_27" depart="16.40" departLane="best" departPos="base" departSpeed="max" type="DefaultCar">
        <route edges="gneE0 gneE1"/>
    </vehicle>
    <vehicle id="1_29" depart="17.60" departLane="best" departPos="base" departSpeed="max" type="DefaultCar">
        <route edges="-gneE2 gneE1"/>
    </vehicle>
    <vehicle id="1_30" depart="18.20" departLane="best" departPos="base" departSpeed="max" type="DefaultCar">
        <route edges="gneE0 gneE1"/>
    </vehicle>
    <vehicle id="1_31" depart="18.80" departLane="best" departPos="base" departSpeed="max" type="DefaultCar">
        <route edges="-gneE3 -gneE0"/>
    </vehicle>
    <vehicle id="1_32" depart="19.40" departLane="best" departPos="base" departSpeed="max" type="DefaultCar">
        <route edges="-gneE2 gneE1"/>
    </vehicle>
    <vehicle id="1_34" depart="20.60" departLane="best" departPos="base" departSpeed="max" type="DefaultCar">
        <route edges="gneE0 gneE3"/>
    </vehicle>
    <vehicle id="1_36" depart="21.80" departLane="best" departPos="base" departSpeed="max" type="DefaultCar">
        <route edges="-gneE3 gneE2"/>
    </vehicle>
    <vehicle id="1_39" depart="23.60" departLane="best" departPos="base" departSpeed="max" type="DefaultCar">
        <route edges="-gneE3 gneE1"/>
    </vehicle>
    <vehicle id="1_41" depart="24.80" departLane="best" departPos="base" departSpeed="max" type="DefaultCar">
        <route edges="-gneE1 gneE3"/>
    </vehicle>
    <vehicle id="1_42" depart="25.40" departLane="best" departPos="base" departSpeed="max" type="DefaultCar">
        <route edges="-gneE3 -gneE0"/>
    </vehicle>
    <vehicle id="1_43" depart="26.00" departLane="best" departPos="base" departSpeed="max" type="DefaultCar">
        <route edges="-gneE1 gneE3"/>
    </vehicle>
    <vehicle id="1_44" depart="26.60" departLane="best" departPos="base" departSpeed="max" type="DefaultCar">
        <route edges="-gneE2 -gneE0"/>
    </vehicle>
    <vehicle id="1_45" depart="27.20" departLane="best" departPos="base" departSpeed="max" type="DefaultCar">
        <route edges="gneE0 gneE2"/>
    </vehicle>
    <vehicle id="1_46" depart="27.80" departLane="best" departPos="base" departSpeed="max" type="DefaultCar">
        <route edges="-gneE3 gneE1"/>
    </vehicle>
    <vehicle id="1_47" depart="28.40" departLane="best" departPos="base" departSpeed="max" type="DefaultCar">
        <route edges="-gneE2 gneE1"/>
    </vehicle>
    <vehicle id="1_48" depart="29.00" departLane="best" departPos="base" departSpeed="max" type="DefaultCar">
        <route edges="gneE0 gneE3"/>
    </vehicle>
    <vehicle id="1_67" depart="40.40" departLane="best" departPos="base" departSpeed="max" type="DefaultCar">
        <route edges="-gneE2 gneE1"/>
    </vehicle>
    <vehicle id="1_71" depart="42.80" departLane="best" departPos="base" departSpeed="max" type="DefaultCar">
        <route edges="gneE0 gneE1"/>
    </vehicle>
    <vehicle id="1_72" depart="43.40" departLane="best" departPos="base" departSpeed="max" type="DefaultCar">
        <route edges="-gneE1 gneE3"/>
    </vehicle>
    <vehicle id="1_73" depart="44.00" departLane="best" departPos="base" departSpeed="max" type="DefaultCar">
        <route edges="-gneE2 gneE3"/>
    </vehicle>
    <vehicle id="1_74" depart="44.60" departLane="best" departPos="base" departSpeed="max" type="DefaultCar">
        <route edges="-gneE2 gneE1"/>
    </vehicle>
    <vehicle id="1_75" depart="45.20" departLane="best" departPos="base" departSpeed="max" type="DefaultCar">
        <route edges="gneE0 gneE3"/>
    </vehicle>
    <vehicle id="1_77" depart="46.40" departLane="best" departPos="base" departSpeed="max" type="DefaultCar">
        <route edges="-gneE2 -gneE0"/>
    </vehicle>
    <vehicle id="1_78" depart="47.00" departLane="best" departPos="base" departSpeed="max" type="DefaultCar">
        <route edges="-gneE3 gneE1"/>
    </vehicle>
    <vehicle id="1_79" depart="47.60" departLane="best" departPos="base" departSpeed="max" type="DefaultCar">
        <route edges="gneE0 gneE3"/>
    </vehicle>
    <vehicle id="1_80" depart="48.20" departLane="best" departPos="base" departSpeed="max" type="DefaultCar">
        <route edges="gneE0 gneE1"/>
    </vehicle>
    <vehicle id="1_81" depart="48.80" departLane="best" departPos="base" departSpeed="max" type="DefaultCar">
        <route edges="-gneE2 -gneE0"/>
    </vehicle>
    <vehicle id="1_82" depart="49.40" departLane="best" departPos="base" departSpeed="max" type="DefaultCar">
        <route edges="gneE0 gneE2"/>
    </vehicle>
    <vehicle id="1_83" depart="50.00" departLane="best" departPos="base" departSpeed="max" type="DefaultCar">
        <route edges="-gneE2 gneE1"/>
    </vehicle>
    <vehicle id="1_84" depart="50.60" departLane="best" departPos="base" departSpeed="max" type="DefaultCar">
        <route edges="-gneE1 gneE2"/>
    </vehicle>
    <vehicle id="1_85" depart="51.20" departLane="best" departPos="base" departSpeed="max" type="DefaultCar">
        <route edges="-gneE2 gneE3"/>
    </vehicle>
    <vehicle id="1_86" depart="51.80" departLane="best" departPos="base" departSpeed="max" type="DefaultCar">
        <route edges="-gneE1 gneE3"/>
    </vehicle>
    <vehicle id="1_88" depart="53.00" departLane="best" departPos="base" departSpeed="max" type="DefaultCar">
        <route edges="-gneE3 gneE1"/>
    </vehicle>
    <vehicle id="1_90" depart="54.20" departLane="best" departPos="base" departSpeed="max" type="DefaultCar">
        <route edges="-gneE1 -gneE0"/>
    </vehicle>
    <vehicle id="1_94" depart="56.60" departLane="best" departPos="base" departSpeed="max" type="DefaultCar">
        <route edges="-gneE3 -gneE0"/>
    </vehicle>
    <vehicle id="1_95" depart="57.20" departLane="best" departPos="base" departSpeed="max" type="DefaultCar">
        <route edges="-gneE2 -gneE0"/>
    </vehicle>
    <vehicle id="1_96" depart="57.80" departLane="best" departPos="base" departSpeed="max" type="DefaultCar">
        <route edges="gneE0 gneE3"/>
    </vehicle>
    <vehicle id="1_97" depart="58.40" departLane="best" departPos="base" departSpeed="max" type="DefaultCar">
        <route edges="-gneE2 -gneE0"/>
    </vehicle>
    <vehicle id="1_98" depart="59.00" departLane="best" departPos="base" departSpeed="max" type="DefaultCar">
        <route edges="-gneE1 gneE2"/>
    </vehicle>
    <vehicle id="1_99" depart="59.60" departLane="best" departPos="base" departSpeed="max" type="DefaultCar">
        <route edges="-gneE3 -gneE0"/>
    </vehicle>
    <vehicle id="1_103" depart="62.00" departLane="best" departPos="base" departSpeed="max" type="DefaultCar">
        <route edges="gneE0 gneE2"/>
    </vehicle>
    <vehicle id="1_104" depart="62.60" departLane="best" departPos="base" departSpeed="max" type="DefaultCar">
        <route edges="-gneE3 -gneE0"/>
    </vehicle>
    <vehicle id="1_105" depart="63.20" departLane="best" departPos="base" departSpeed="max" type="DefaultCar">
        <route edges="-gneE3 gneE1"/>
    </vehicle>
    <vehicle id="1_106" depart="63.80" departLane="best" departPos="base" departSpeed="max" type="DefaultCar">
        <route edges="-gneE1 gneE2"/>
    </vehicle>
    <vehicle id="1_107" depart="64.40" departLane="best" departPos="base" departSpeed="max" type="DefaultCar">
        <route edges="gneE0 gneE3"/>
    </vehicle>
    <vehicle id="1_109" depart="65.60" departLane="best" departPos="base" departSpeed="max" type="DefaultCar">
        <route edges="gneE0 gneE1"/>
    </vehicle>
    <vehicle id="1_110" depart="66.20" departLane="best" departPos="base" departSpeed="max" type="DefaultCar">
        <route edges="gneE0 gneE1"/>
    </vehicle>
    <vehicle id="1_111" depart="66.80" departLane="best" departPos="base" departSpeed="max" type="DefaultCar">
        <route edges="-gneE3 -gneE0"/>
    </vehicle>
    <vehicle id="1_114" depart="68.60" departLane="best" departPos="base" departSpeed="max" type="DefaultCar">
        <route edges="-gneE2 -gneE0"/>
    </vehicle>
    <vehicle id="1_115" depart="69.20" departLane="best" departPos="base" departSpeed="max" type="DefaultCar">
        <route edges="-gneE1 gneE3"/>
    </vehicle>
    <vehicle id="1_133" depart="80.00" departLane="best" departPos="base" departSpeed="max" type="DefaultCar">
        <route edges="-gneE1 gneE2"/>
    </vehicle>
    <vehicle id="1_134" depart="80.60" departLane="best" departPos="base" departSpeed="max" type="DefaultCar">
        <route edges="-gneE2 gneE3"/>
    </vehicle>
    <vehicle id="1_135" depart="81.20" departLane="best" departPos="base" departSpeed="max" type="DefaultCar">
        <route edges="gneE0 gneE1"/>
    </vehicle>
    <vehicle id="1_137" depart="82.40" departLane="best" departPos="base" departSpeed="max" type="DefaultCar">
        <route edges="gneE0 gneE1"/>
    </vehicle>
    <vehicle id="1_139" depart="83.60" departLane="best" departPos="base" departSpeed="max" type="DefaultCar">
        <route edges="gneE0 gneE3"/>
    </vehicle>
    <vehicle id="1_140" depart="84.20" departLane="best" departPos="base" departSpeed="max" type="DefaultCar">
        <route edges="-gneE2 -gneE0"/>
    </vehicle>
    <vehicle id="1_141" depart="84.80" departLane="best" departPos="base" departSpeed="max" type="DefaultCar">
        <route edges="-gneE3 gneE1"/>
    </vehicle>
    <vehicle id="1_142" depart="85.40" departLane="best" departPos="base" departSpeed="max" type="DefaultCar">
        <route edges="gneE0 gneE2"/>
    </vehicle>
    <vehicle id="1_143" depart="86.00" departLane="best" departPos="base" departSpeed="max" type="DefaultCar">
        <route edges="-gneE2 gneE1"/>
    </vehicle>
    <vehicle id="1_145" depart="87.20" departLane="best" departPos="base" departSpeed="max" type="DefaultCar">
        <route edges="gneE0 gneE3"/>
    </vehicle>
    <vehicle id="1_147" depart="88.40" departLane="best" departPos="base" departSpeed="max" type="DefaultCar">
        <route edges="-gneE1 -gneE0"/>
    </vehicle>
    <vehicle id="1_148" depart="89.00" departLane="best" departPos="base" departSpeed="max" type="DefaultCar">
        <route edges="-gneE2 -gneE0"/>
    </vehicle>
    <vehicle id="1_149" depart="89.60" departLane="best" departPos="base" departSpeed="max" type="DefaultCar">
        <route edges="gneE0 gneE3"/>
    </vehicle>
</routes>