<?xml version="1.0" encoding="UTF-8"?>

<!-- generated on Sun 28 Oct 2018 05:19:43 PM EDT by Eclipse SUMO netedit Version 1.0.1
<configuration xmlns:xsi="http://www.w3.org/2001/XMLSchema-instance" xsi:noNamespaceSchemaLocation="http://sumo.dlr.de/xsd/netconvertConfiguration.xsd">

    <input>
        <sumo-net-file value="/home/ken/Perf/sumo_openai_gym/traffic/test.net.xml"/>
    </input>

    <output>
        <output-file value="/home/ken/Perf/sumo_openai_gym/traffic/test.net.xml"/>
    </output>

    <processing>
        <offset.disable-normalization value="true"/>
        <lefthand value="false"/>
    </processing>

    <junctions>
        <no-turnarounds value="true"/>
        <junctions.corner-detail value="0"/>
        <junctions.limit-turn-speed value="-1"/>
        <rectangular-lane-cut value="false"/>
    </junctions>

    <pedestrian>
        <walkingareas value="false"/>
    </pedestrian>

</configuration>
-->

<net version="1.0" xmlns:xsi="http://www.w3.org/2001/XMLSchema-instance" xsi:noNamespaceSchemaLocation="http://sumo.dlr.de/xsd/net_file.xsd">

    <location netOffset="0.00,0.00" convBoundary="-200.00,-100.00,200.00,100.00" origBoundary="-10000000000.00,-10000000000.00,10000000000.00,10000000000.00" projParameter="!"/>

    <edge id=":0_0" function="internal">
        <lane id=":0_0_0" index="0" speed="13.89" length="9.03" shape="-4.80,10.40 -5.15,7.95 -6.20,6.20 -7.95,5.15 -10.40,4.80"/>
    </edge>
    <edge id=":0_1" function="internal">
        <lane id=":0_1_0" index="0" speed="13.89" length="20.80" shape="-1.60,10.40 -1.60,-10.40"/>
    </edge>
    <edge id=":0_2" function="internal">
        <lane id=":0_2_0" index="0" speed="13.89" length="19.35" shape="-1.60,10.40 -0.85,5.15 1.40,1.40 5.15,-0.85 10.40,-1.60"/>
    </edge>
    <edge id=":0_3" function="internal">
        <lane id=":0_3_0" index="0" speed="13.89" length="11.73" shape="10.40,4.80 6.55,5.15 3.80,6.20 2.15,7.95 1.60,10.40"/>
    </edge>
    <edge id=":0_4" function="internal">
        <lane id=":0_4_0" index="0" speed="13.89" length="20.80" shape="10.40,4.80 -10.40,4.80"/>
        <lane id=":0_4_1" index="1" speed="13.89" length="20.80" shape="10.40,1.60 -10.40,1.60"/>
    </edge>
    <edge id=":0_6" function="internal">
        <lane id=":0_6_0" index="0" speed="13.89" length="10.03" shape="10.40,1.60 5.15,0.85 1.40,-1.40 1.22,-1.70"/>
    </edge>
    <edge id=":0_13" function="internal">
        <lane id=":0_13_0" index="0" speed="13.89" length="9.33" shape="1.22,-1.70 -0.85,-5.15 -1.60,-10.40"/>
    </edge>
    <edge id=":0_7" function="internal">
        <lane id=":0_7_0" index="0" speed="13.89" length="11.73" shape="4.80,-10.40 5.15,-6.55 6.20,-3.80 7.95,-2.15 10.40,-1.60"/>
    </edge>
    <edge id=":0_8" function="internal">
        <lane id=":0_8_0" index="0" speed="13.89" length="21.09" shape="4.80,-10.40 4.30,-3.63 3.20,1.88 2.10,6.45 1.60,10.40"/>
    </edge>
    <edge id=":0_9" function="internal">
        <lane id=":0_9_0" index="0" speed="13.89" length="19.35" shape="1.60,-10.40 0.85,-5.15 -1.40,-1.40 -5.15,0.85 -10.40,1.60"/>
    </edge>
    <edge id=":0_10" function="internal">
        <lane id=":0_10_0" index="0" speed="13.89" length="11.73" shape="-10.40,-4.80 -6.55,-5.15 -3.80,-6.20 -2.15,-7.95 -1.60,-10.40"/>
    </edge>
    <edge id=":0_11" function="internal">
        <lane id=":0_11_0" index="0" speed="13.89" length="21.09" shape="-10.40,-4.80 -3.63,-4.30 1.88,-3.20 6.45,-2.10 10.40,-1.60"/>
    </edge>
    <edge id=":0_12" function="internal">
        <lane id=":0_12_0" index="0" speed="13.89" length="6.96" shape="-10.40,-1.60 -5.15,-0.85 -3.73,-0.00"/>
    </edge>
    <edge id=":0_14" function="internal">
        <lane id=":0_14_0" index="0" speed="13.89" length="12.40" shape="-3.73,-0.00 -1.40,1.40 0.85,5.15 1.60,10.40"/>
    </edge>

    <edge id="-gneE0" from="0" to="4" priority="2">
        <lane id="-gneE0_0" index="0" speed="13.89" length="189.60" shape="-10.40,4.80 -200.00,4.80"/>
        <lane id="-gneE0_1" index="1" speed="13.89" length="189.60" shape="-10.40,1.60 -200.00,1.60"/>
    </edge>
    <edge id="-gneE1" from="2" to="0" priority="2">
        <lane id="-gneE1_0" index="0" speed="13.89" length="189.60" shape="200.00,4.80 10.40,4.80"/>
        <lane id="-gneE1_1" index="1" speed="13.89" length="189.60" shape="200.00,1.60 10.40,1.60">
            <neigh lane="gneE1_0"/>
        </lane>
    </edge>
    <edge id="-gneE2" from="3" to="0" priority="1">
        <lane id="-gneE2_0" index="0" speed="13.89" length="89.60" shape="4.80,-100.00 4.80,-10.40"/>
        <lane id="-gneE2_1" index="1" speed="13.89" length="89.60" shape="1.60,-100.00 1.60,-10.40">
            <neigh lane="gneE2_0"/>
        </lane>
    </edge>
    <edge id="-gneE3" from="1" to="0" priority="1">
        <lane id="-gneE3_0" index="0" speed="13.89" length="89.60" shape="-4.80,100.00 -4.80,10.40"/>
        <lane id="-gneE3_1" index="1" speed="13.89" length="89.60" shape="-1.60,100.00 -1.60,10.40"/>
    </edge>
    <edge id="gneE0" from="4" to="0" priority="2">
        <lane id="gneE0_0" index="0" speed="13.89" length="189.60" shape="-200.00,-4.80 -10.40,-4.80"/>
        <lane id="gneE0_1" index="1" speed="13.89" length="189.60" shape="-200.00,-1.60 -10.40,-1.60"/>
    </edge>
    <edge id="gneE1" from="0" to="2" priority="2">
        <lane id="gneE1_0" index="0" speed="13.89" length="189.60" shape="10.40,-1.60 200.00,-1.60">
            <neigh lane="-gneE1_1"/>
        </lane>
    </edge>
    <edge id="gneE2" from="0" to="3" priority="1">
        <lane id="gneE2_0" index="0" speed="13.89" length="89.60" shape="-1.60,-10.40 -1.60,-100.00">
            <neigh lane="-gneE2_1"/>
        </lane>
    </edge>
    <edge id="gneE3" from="0" to="1" priority="1">
        <lane id="gneE3_0" index="0" speed="13.89" length="89.60" shape="1.60,10.40 1.60,100.00"/>
    </edge>

    <junction id="0" type="priority" x="0.00" y="0.00" incLanes="-gneE3_0 -gneE3_1 -gneE1_0 -gneE1_1 -gneE2_0 -gneE2_1 gneE0_0 gneE0_1" intLanes=":0_0_0 :0_1_0 :0_2_0 :0_3_0 :0_4_0 :0_4_1 :0_13_0 :0_7_0 :0_8_0 :0_9_0 :0_10_0 :0_11_0 :0_14_0" shape="-6.40,10.40 3.20,10.40 10.40,6.40 10.40,-3.20 6.40,-10.40 -3.20,-10.40 -10.40,-6.40 -10.40,6.40">
        <request index="0"  response="0000000110000" foes="0001000110000" cont="0"/>
        <request index="1"  response="1110001110000" foes="1111001110000" cont="0"/>
        <request index="2"  response="1100111110000" foes="1100111110000" cont="0"/>
        <request index="3"  response="0000000000000" foes="1000100000000" cont="0"/>
        <request index="4"  response="0000000000000" foes="1001100000111" cont="0"/>
        <request index="5"  response="0000000000000" foes="1001100000111" cont="0"/>
        <request index="6"  response="0110000000000" foes="0111100000110" cont="1"/>
        <request index="7"  response="0100000000000" foes="0100000000100" cont="0"/>
        <request index="8"  response="1100001111000" foes="1100001111100" cont="0"/>
        <request index="9"  response="1100001110011" foes="1100001110011" cont="0"/>
        <request index="10" response="0000000000000" foes="0000001000010" cont="0"/>
        <request index="11" response="0000000000000" foes="0001111000110" cont="0"/>
        <request index="12" response="0000000111000" foes="0001100111110" cont="1"/>
    </junction>
    <junction id="1" type="dead_end" x="0.00" y="100.00" incLanes="gneE3_0" intLanes="" shape="0.00,100.00 3.20,100.00 0.00,100.00"/>
    <junction id="2" type="dead_end" x="200.00" y="0.00" incLanes="gneE1_0" intLanes="" shape="200.00,0.00 200.00,-3.20 200.00,0.00"/>
    <junction id="3" type="dead_end" x="0.00" y="-100.00" incLanes="gneE2_0" intLanes="" shape="0.00,-100.00 -3.20,-100.00 0.00,-100.00"/>
    <junction id="4" type="dead_end" x="-200.00" y="0.00" incLanes="-gneE0_0 -gneE0_1" intLanes="" shape="-200.00,0.00 -200.00,6.40 -200.00,0.00"/>

    <junction id=":0_13_0" type="internal" x="1.22" y="-1.70" incLanes=":0_6_0 gneE0_0" intLanes=":0_1_0 :0_2_0 :0_8_0 :0_9_0 :0_10_0 :0_11_0"/>
    <junction id=":0_14_0" type="internal" x="-3.73" y="-0.00" incLanes=":0_12_0 -gneE1_0 -gneE1_1" intLanes=":0_1_0 :0_2_0 :0_3_0 :0_4_0 :0_4_1 :0_8_0 :0_9_0"/>

    <connection from="-gneE1" to="gneE3" fromLane="0" toLane="0" via=":0_3_0" dir="r" state="M"/>
    <connection from="-gneE1" to="-gneE0" fromLane="0" toLane="0" via=":0_4_0" dir="s" state="M"/>
    <connection from="-gneE1" to="-gneE0" fromLane="1" toLane="1" via=":0_4_1" dir="s" state="M"/>
    <connection from="-gneE1" to="gneE2" fromLane="1" toLane="0" via=":0_6_0" dir="l" state="m"/>
    <connection from="-gneE2" to="gneE1" fromLane="0" toLane="0" via=":0_7_0" dir="r" state="m"/>
    <connection from="-gneE2" to="gneE3" fromLane="0" toLane="0" via=":0_8_0" dir="s" state="m"/>
    <connection from="-gneE2" to="-gneE0" fromLane="1" toLane="1" via=":0_9_0" dir="l" state="m"/>
    <connection from="-gneE3" to="-gneE0" fromLane="0" toLane="0" via=":0_0_0" dir="r" state="m"/>
    <connection from="-gneE3" to="gneE2" fromLane="1" toLane="0" via=":0_1_0" dir="s" state="m"/>
    <connection from="-gneE3" to="gneE1" fromLane="1" toLane="0" via=":0_2_0" dir="l" state="m"/>
    <connection from="gneE0" to="gneE2" fromLane="0" toLane="0" via=":0_10_0" dir="r" state="M"/>
    <connection from="gneE0" to="gneE1" fromLane="0" toLane="0" via=":0_11_0" dir="s" state="M"/>
    <connection from="gneE0" to="gneE3" fromLane="1" toLane="0" via=":0_12_0" dir="l" state="m"/>

    <connection from=":0_0" to="-gneE0" fromLane="0" toLane="0" dir="r" state="M"/>
    <connection from=":0_1" to="gneE2" fromLane="0" toLane="0" dir="s" state="M"/>
    <connection from=":0_2" to="gneE1" fromLane="0" toLane="0" dir="l" state="M"/>
    <connection from=":0_3" to="gneE3" fromLane="0" toLane="0" dir="r" state="M"/>
    <connection from=":0_4" to="-gneE0" fromLane="0" toLane="0" dir="s" state="M"/>
    <connection from=":0_4" to="-gneE0" fromLane="1" toLane="1" dir="s" state="M"/>
    <connection from=":0_6" to="gneE2" fromLane="0" toLane="0" via=":0_13_0" dir="l" state="m"/>
    <connection from=":0_13" to="gneE2" fromLane="0" toLane="0" dir="l" state="M"/>
    <connection from=":0_7" to="gneE1" fromLane="0" toLane="0" dir="r" state="M"/>
    <connection from=":0_8" to="gneE3" fromLane="0" toLane="0" dir="s" state="M"/>
    <connection from=":0_9" to="-gneE0" fromLane="0" toLane="1" dir="l" state="M"/>
    <connection from=":0_10" to="gneE2" fromLane="0" toLane="0" dir="r" state="M"/>
    <connection from=":0_11" to="gneE1" fromLane="0" toLane="0" dir="s" state="M"/>
    <connection from=":0_12" to="gneE3" fromLane="0" toLane="0" via=":0_14_0" dir="l" state="m"/>
    <connection from=":0_14" to="gneE3" fromLane="0" toLane="0" dir="l" state="M"/>

</net>
