<?xml version="1.0" encoding="UTF-8"?>

<!-- generated on Mon Oct 22 00:07:48 2018 by SUMO duarouter Version UNKNOWN
<configuration xmlns:xsi="http://www.w3.org/2001/XMLSchema-instance" xsi:noNamespaceSchemaLocation="http://sumo.dlr.de/xsd/duarouterConfiguration.xsd">

    <input>
        <net-file value="roundabout.net.xml"/>
        <route-files value="trips.trips.xml"/>
    </input>

    <output>
        <output-file value="temp0.rou.xml"/>
        <alternatives-output value="temp0.rou.alt.xml"/>
    </output>

    <processing>
        <ignore-errors value="true"/>
    </processing>

    <time>
        <begin value="0"/>
        <end value="0.1"/>
    </time>

    <report>
        <no-warnings value="true"/>
        <no-step-log value="true"/>
    </report>

</configuration>
-->

<routes xmlns:xsi="http://www.w3.org/2001/XMLSchema-instance" xsi:noNamespaceSchemaLocation="http://sumo.dlr.de/xsd/routes_file.xsd">
    <vType id="EgoCar" color="0,1,0"/>
    <vehicle id="ego" depart="0.00" departLane="random" departPos="random" departSpeed="random" type="EgoCar">
        <route edges="-gneE1.23 -gneE7 -gneE6 -gneE0"/>
    </vehicle>
    <vehicle id="1" depart="0.01" departLane="random" departPos="random_free" departSpeed="random">
        <route edges="-gneE6 -gneE5 -gneE4 -gneE7 gneE3.9"/>
    </vehicle>
    <vehicle id="2" depart="0.01" departLane="random" departPos="random_free" departSpeed="random">
        <route edges="gneE7 gneE4 gneE5 -gneE0"/>
    </vehicle>
    <vehicle id="3" depart="0.02" departLane="random" departPos="random_free" departSpeed="random">
        <route edges="-gneE2.9 -gneE4 -gneE7 -gneE6 -gneE5 gneE2.9"/>
    </vehicle>
    <vehicle id="4" depart="0.02" departLane="random" departPos="random_free" departSpeed="random">
        <route edges="-gneE1.23 -gneE7 -gneE6 -gneE5 -gneE4 gneE1.23"/>
    </vehicle>
    <vehicle id="5" depart="0.03" departLane="random" departPos="random_free" departSpeed="random">
        <route edges="-gneE3.9 -gneE6 -gneE5 gneE2.9"/>
    </vehicle>
    <vehicle id="6" depart="0.04" departLane="random" departPos="random_free" departSpeed="random">
        <route edges="gneE0 -gneE5 -gneE4 gneE1.23"/>
    </vehicle>
    <vehicle id="7" depart="0.04" departLane="random" departPos="random_free" departSpeed="random">
        <route edges="-gneE2.9 gneE5 gneE6 gneE7 gneE4"/>
    </vehicle>
    <vehicle id="8" depart="0.05" departLane="random" departPos="random_free" departSpeed="random">
        <route edges="-gneE1.23 gneE4 gneE5"/>
    </vehicle>
    <vehicle id="9" depart="0.05" departLane="random" departPos="random_free" departSpeed="random">
        <route edges="-gneE3.9 gneE7 gneE1.23"/>
    </vehicle>
    <vehicle id="10" depart="0.06" departLane="random" departPos="random_free" departSpeed="random">
        <route edges="-gneE1.23 -gneE7 gneE3.9"/>
    </vehicle>
    <vehicle id="11" depart="0.07" departLane="random" departPos="random_free" departSpeed="random">
        <route edges="gneE5 -gneE0"/>
    </vehicle>
    <vehicle id="12" depart="0.07" departLane="random" departPos="random_free" departSpeed="random">
        <route edges="-gneE2.9 -gneE4 -gneE7 gneE3.9"/>
    </vehicle>
    <vehicle id="13" depart="0.08" departLane="random" departPos="random_free" departSpeed="random">
        <route edges="-gneE2.9 gneE5 gneE6 gneE7"/>
    </vehicle>
    <vehicle id="14" depart="0.08" departLane="random" departPos="random_free" departSpeed="random">
        <route edges="-gneE4 -gneE7 -gneE6 -gneE5 gneE2.9"/>
    </vehicle>
    <vehicle id="15" depart="0.09" departLane="random" departPos="random_free" departSpeed="random">
        <route edges="-gneE3.9 -gneE6 -gneE0"/>
    </vehicle>
    <vehicle id="1_0" depart="0.20" departLane="random" departPos="base" departSpeed="random">
        <route edges="-gneE1.23 -gneE7 -gneE6 -gneE5 -gneE4 gneE1.23"/>
    </vehicle>
    <vehicle id="1_2" depart="3.40" departLane="random" departPos="base" departSpeed="random">
        <route edges="-gneE3.9 -gneE6 -gneE0"/>
    </vehicle>
    <vehicle id="1_3" depart="5.00" departLane="random" departPos="base" departSpeed="random">
        <route edges="gneE0 -gneE5 -gneE4 -gneE7 -gneE6 -gneE0"/>
    </vehicle>
    <vehicle id="1_4" depart="6.60" departLane="random" departPos="base" departSpeed="random">
        <route edges="gneE0 -gneE5 gneE2.9"/>
    </vehicle>
    <vehicle id="1_5" depart="8.20" departLane="random" departPos="base" departSpeed="random">
        <route edges="-gneE3.9 -gneE6 -gneE5 gneE2.9"/>
    </vehicle>
    <vehicle id="1_7" depart="11.40" departLane="random" departPos="base" departSpeed="random">
        <route edges="-gneE3.9 -gneE6 -gneE5 -gneE4 -gneE7 gneE3.9"/>
    </vehicle>
    <vehicle id="1_8" depart="13.00" departLane="random" departPos="base" departSpeed="random">
        <route edges="gneE0 -gneE5 -gneE4 -gneE7 -gneE6 -gneE0"/>
    </vehicle>
    <vehicle id="1_9" depart="14.60" departLane="random" departPos="base" departSpeed="random">
        <route edges="-gneE3.9 -gneE6 -gneE0"/>
    </vehicle>
    <vehicle id="1_10" depart="16.20" departLane="random" departPos="base" departSpeed="random">
        <route edges="gneE0 -gneE5 -gneE4 -gneE7 -gneE6 -gneE0"/>
    </vehicle>
    <vehicle id="1_11" depart="17.80" departLane="random" departPos="base" departSpeed="random">
        <route edges="gneE0 -gneE5 -gneE4 -gneE7 -gneE6 -gneE0"/>
    </vehicle>
    <vehicle id="1_14" depart="22.60" departLane="random" departPos="base" departSpeed="random">
        <route edges="-gneE2.9 -gneE4 -gneE7 gneE3.9"/>
    </vehicle>
    <vehicle id="1_15" depart="24.20" departLane="random" departPos="base" departSpeed="random">
        <route edges="gneE0 -gneE5 -gneE4 gneE1.23"/>
    </vehicle>
    <vehicle id="1_16" depart="25.80" departLane="random" departPos="base" departSpeed="random">
        <route edges="-gneE1.23 -gneE7 -gneE6 -gneE5 -gneE4 gneE1.23"/>
    </vehicle>
    <vehicle id="1_18" depart="29.00" departLane="random" departPos="base" departSpeed="random">
        <route edges="gneE0 -gneE5 -gneE4 -gneE7 -gneE6 -gneE0"/>
    </vehicle>
    <vehicle id="1_19" depart="30.60" departLane="random" departPos="base" departSpeed="random">
        <route edges="gneE0 -gneE5 gneE2.9"/>
    </vehicle>
    <vehicle id="1_20" depart="32.20" departLane="random" departPos="base" departSpeed="random">
        <route edges="-gneE2.9 -gneE4 -gneE7 -gneE6 -gneE5 gneE2.9"/>
    </vehicle>
    <vehicle id="1_21" depart="33.80" departLane="random" departPos="base" departSpeed="random">
        <route edges="gneE0 gneE6 gneE3.9"/>
    </vehicle>
    <vehicle id="1_22" depart="35.40" departLane="random" departPos="base" departSpeed="random">
        <route edges="-gneE1.23 -gneE7 gneE3.9"/>
    </vehicle>
    <vehicle id="1_23" depart="37.00" departLane="random" departPos="base" departSpeed="random">
        <route edges="-gneE1.23 -gneE7 -gneE6 -gneE0"/>
    </vehicle>
    <vehicle id="1_24" depart="38.60" departLane="random" departPos="base" departSpeed="random">
        <route edges="-gneE3.9 -gneE6 -gneE5 -gneE4 -gneE7 gneE3.9"/>
    </vehicle>
    <vehicle id="1_25" depart="40.20" departLane="random" departPos="base" departSpeed="random">
        <route edges="-gneE1.23 -gneE7 -gneE6 -gneE5 -gneE4 gneE1.23"/>
    </vehicle>
    <vehicle id="1_27" depart="43.40" departLane="random" departPos="base" departSpeed="random">
        <route edges="-gneE1.23 -gneE7 -gneE6 -gneE5 -gneE4 gneE1.23"/>
    </vehicle>
    <vehicle id="1_29" depart="46.60" departLane="random" departPos="base" departSpeed="random">
        <route edges="-gneE3.9 gneE7 gneE1.23"/>
    </vehicle>
    <vehicle id="1_32" depart="51.40" departLane="random" departPos="base" departSpeed="random">
        <route edges="-gneE3.9 -gneE6 -gneE0"/>
    </vehicle>
    <vehicle id="1_34" depart="54.60" departLane="random" departPos="base" departSpeed="random">
        <route edges="-gneE2.9 -gneE4 -gneE7 -gneE6 -gneE5 gneE2.9"/>
    </vehicle>
    <vehicle id="1_36" depart="57.80" departLane="random" departPos="base" departSpeed="random">
        <route edges="-gneE2.9 -gneE4 gneE1.23"/>
    </vehicle>
    <vehicle id="1_37" depart="59.40" departLane="random" departPos="base" departSpeed="random">
        <route edges="gneE0 gneE6 gneE3.9"/>
    </vehicle>
    <vehicle id="1_40" depart="64.20" departLane="random" departPos="base" departSpeed="random">
        <route edges="-gneE3.9 -gneE6 -gneE0"/>
    </vehicle>
    <vehicle id="1_42" depart="67.40" departLane="random" departPos="base" departSpeed="random">
        <route edges="-gneE3.9 -gneE6 -gneE5 gneE2.9"/>
    </vehicle>
    <vehicle id="1_43" depart="69.00" departLane="random" departPos="base" departSpeed="random">
        <route edges="-gneE1.23 -gneE7 -gneE6 -gneE0"/>
    </vehicle>
    <vehicle id="1_44" depart="70.60" departLane="random" departPos="base" departSpeed="random">
        <route edges="-gneE1.23 -gneE7 -gneE6 -gneE5 -gneE4 gneE1.23"/>
    </vehicle>
    <vehicle id="1_46" depart="73.80" departLane="random" departPos="base" departSpeed="random">
        <route edges="-gneE3.9 -gneE6 -gneE5 gneE2.9"/>
    </vehicle>
    <vehicle id="1_47" depart="75.40" departLane="random" departPos="base" departSpeed="random">
        <route edges="-gneE3.9 -gneE6 -gneE5 -gneE4 -gneE7 gneE3.9"/>
    </vehicle>
    <vehicle id="1_48" depart="77.00" departLane="random" departPos="base" departSpeed="random">
        <route edges="-gneE3.9 gneE7 gneE1.23"/>
    </vehicle>
    <vehicle id="1_50" depart="80.20" departLane="random" departPos="base" departSpeed="random">
        <route edges="-gneE2.9 -gneE4 gneE1.23"/>
    </vehicle>
    <vehicle id="1_51" depart="81.80" departLane="random" departPos="base" departSpeed="random">
        <route edges="-gneE2.9 -gneE4 -gneE7 gneE3.9"/>
    </vehicle>
    <vehicle id="1_52" depart="83.40" departLane="random" departPos="base" departSpeed="random">
        <route edges="-gneE3.9 gneE7 gneE1.23"/>
    </vehicle>
    <vehicle id="1_54" depart="86.60" departLane="random" departPos="base" departSpeed="random">
        <route edges="-gneE1.23 gneE4 gneE2.9"/>
    </vehicle>
    <vehicle id="1_55" depart="88.20" departLane="random" departPos="base" departSpeed="random">
        <route edges="-gneE2.9 gneE5 -gneE0"/>
    </vehicle>
    <vehicle id="1_60" depart="96.20" departLane="random" departPos="base" departSpeed="random">
        <route edges="gneE0 -gneE5 -gneE4 gneE1.23"/>
    </vehicle>
    <vehicle id="1_61" depart="97.80" departLane="random" departPos="base" departSpeed="random">
        <route edges="-gneE2.9 -gneE4 -gneE7 -gneE6 -gneE5 gneE2.9"/>
    </vehicle>
    <vehicle id="1_62" depart="99.40" departLane="random" departPos="base" departSpeed="random">
        <route edges="gneE0 -gneE5 -gneE4 gneE1.23"/>
    </vehicle>
    <vehicle id="1_63" depart="101.00" departLane="random" departPos="base" departSpeed="random">
        <route edges="-gneE2.9 -gneE4 gneE1.23"/>
    </vehicle>
    <vehicle id="1_64" depart="102.60" departLane="random" departPos="base" departSpeed="random">
        <route edges="gneE0 gneE6 gneE3.9"/>
    </vehicle>
    <vehicle id="1_65" depart="104.20" departLane="random" departPos="base" departSpeed="random">
        <route edges="gneE0 -gneE5 -gneE4 gneE1.23"/>
    </vehicle>
    <vehicle id="1_66" depart="105.80" departLane="random" departPos="base" departSpeed="random">
        <route edges="-gneE3.9 -gneE6 -gneE0"/>
    </vehicle>
    <vehicle id="1_67" depart="107.40" departLane="random" departPos="base" departSpeed="random">
        <route edges="gneE0 -gneE5 gneE2.9"/>
    </vehicle>
    <vehicle id="1_68" depart="109.00" departLane="random" departPos="base" departSpeed="random">
        <route edges="-gneE1.23 -gneE7 -gneE6 -gneE0"/>
    </vehicle>
    <vehicle id="1_69" depart="110.60" departLane="random" departPos="base" departSpeed="random">
        <route edges="-gneE1.23 gneE4 gneE2.9"/>
    </vehicle>
    <vehicle id="1_70" depart="112.20" departLane="random" departPos="base" departSpeed="random">
        <route edges="-gneE1.23 -gneE7 -gneE6 -gneE0"/>
    </vehicle>
    <vehicle id="1_71" depart="113.80" departLane="random" departPos="base" departSpeed="random">
        <route edges="-gneE2.9 -gneE4 -gneE7 gneE3.9"/>
    </vehicle>
    <vehicle id="1_72" depart="115.40" departLane="random" departPos="base" departSpeed="random">
        <route edges="gneE0 -gneE5 -gneE4 -gneE7 -gneE6 -gneE0"/>
    </vehicle>
    <vehicle id="1_73" depart="117.00" departLane="random" departPos="base" departSpeed="random">
        <route edges="-gneE3.9 -gneE6 -gneE5 -gneE4 -gneE7 gneE3.9"/>
    </vehicle>
    <vehicle id="1_75" depart="120.20" departLane="random" departPos="base" departSpeed="random">
        <route edges="-gneE1.23 -gneE7 -gneE6 -gneE5 -gneE4 gneE1.23"/>
    </vehicle>
    <vehicle id="1_79" depart="126.60" departLane="random" departPos="base" departSpeed="random">
        <route edges="-gneE3.9 -gneE6 -gneE5 gneE2.9"/>
    </vehicle>
    <vehicle id="1_80" depart="128.20" departLane="random" departPos="base" departSpeed="random">
        <route edges="-gneE3.9 -gneE6 -gneE5 gneE2.9"/>
    </vehicle>
    <vehicle id="1_81" depart="129.80" departLane="random" departPos="base" departSpeed="random">
        <route edges="-gneE2.9 -gneE4 -gneE7 -gneE6 -gneE5 gneE2.9"/>
    </vehicle>
    <vehicle id="1_83" depart="133.00" departLane="random" departPos="base" departSpeed="random">
        <route edges="-gneE1.23 -gneE7 gneE3.9"/>
    </vehicle>
    <vehicle id="1_85" depart="136.20" departLane="random" departPos="base" departSpeed="random">
        <route edges="-gneE1.23 -gneE7 gneE3.9"/>
    </vehicle>
    <vehicle id="1_86" depart="137.80" departLane="random" departPos="base" departSpeed="random">
        <route edges="-gneE3.9 -gneE6 -gneE5 -gneE4 -gneE7 gneE3.9"/>
    </vehicle>
    <vehicle id="1_87" depart="139.40" departLane="random" departPos="base" departSpeed="random">
        <route edges="-gneE3.9 -gneE6 -gneE5 -gneE4 -gneE7 gneE3.9"/>
    </vehicle>
    <vehicle id="1_88" depart="141.00" departLane="random" departPos="base" departSpeed="random">
        <route edges="-gneE2.9 gneE5 -gneE0"/>
    </vehicle>
    <vehicle id="1_89" depart="142.60" departLane="random" departPos="base" departSpeed="random">
        <route edges="-gneE2.9 -gneE4 gneE1.23"/>
    </vehicle>
    <vehicle id="1_93" depart="149.00" departLane="random" departPos="base" departSpeed="random">
        <route edges="-gneE1.23 -gneE7 -gneE6 -gneE0"/>
    </vehicle>
    <vehicle id="1_94" depart="150.60" departLane="random" departPos="base" departSpeed="random">
        <route edges="-gneE1.23 -gneE7 gneE3.9"/>
    </vehicle>
    <vehicle id="1_95" depart="152.20" departLane="random" departPos="base" departSpeed="random">
        <route edges="-gneE2.9 -gneE4 gneE1.23"/>
    </vehicle>
    <vehicle id="1_97" depart="155.40" departLane="random" departPos="base" departSpeed="random">
        <route edges="-gneE3.9 -gneE6 -gneE5 -gneE4 -gneE7 gneE3.9"/>
    </vehicle>
    <vehicle id="1_98" depart="157.00" departLane="random" departPos="base" departSpeed="random">
        <route edges="-gneE3.9 gneE7 gneE1.23"/>
    </vehicle>
    <vehicle id="1_99" depart="158.60" departLane="random" departPos="base" departSpeed="random">
        <route edges="-gneE1.23 -gneE7 -gneE6 -gneE5 -gneE4 gneE1.23"/>
    </vehicle>
    <vehicle id="1_101" depart="161.80" departLane="random" departPos="base" departSpeed="random">
        <route edges="-gneE2.9 -gneE4 gneE1.23"/>
    </vehicle>
    <vehicle id="1_102" depart="163.40" departLane="random" departPos="base" departSpeed="random">
        <route edges="gneE0 -gneE5 -gneE4 -gneE7 -gneE6 -gneE0"/>
    </vehicle>
    <vehicle id="1_103" depart="165.00" departLane="random" departPos="base" departSpeed="random">
        <route edges="-gneE2.9 -gneE4 -gneE7 gneE3.9"/>
    </vehicle>
    <vehicle id="1_105" depart="168.20" departLane="random" departPos="base" departSpeed="random">
        <route edges="-gneE2.9 -gneE4 -gneE7 -gneE6 -gneE5 gneE2.9"/>
    </vehicle>
    <vehicle id="1_106" depart="169.80" departLane="random" departPos="base" departSpeed="random">
        <route edges="-gneE2.9 gneE5 -gneE0"/>
    </vehicle>
    <vehicle id="1_108" depart="173.00" departLane="random" departPos="base" departSpeed="random">
        <route edges="gneE0 -gneE5 gneE2.9"/>
    </vehicle>
    <vehicle id="1_109" depart="174.60" departLane="random" departPos="base" departSpeed="random">
        <route edges="-gneE3.9 -gneE6 -gneE5 gneE2.9"/>
    </vehicle>
    <vehicle id="1_111" depart="177.80" departLane="random" departPos="base" departSpeed="random">
        <route edges="-gneE3.9 -gneE6 -gneE5 -gneE4 -gneE7 gneE3.9"/>
    </vehicle>
    <vehicle id="1_112" depart="179.40" departLane="random" departPos="base" departSpeed="random">
        <route edges="-gneE3.9 -gneE6 -gneE5 gneE2.9"/>
    </vehicle>
    <vehicle id="1_113" depart="181.00" departLane="random" departPos="base" departSpeed="random">
        <route edges="gneE0 gneE6 gneE3.9"/>
    </vehicle>
    <vehicle id="1_114" depart="182.60" departLane="random" departPos="base" departSpeed="random">
        <route edges="gneE0 -gneE5 -gneE4 gneE1.23"/>
    </vehicle>
    <vehicle id="1_118" depart="189.00" departLane="random" departPos="base" departSpeed="random">
        <route edges="-gneE3.9 -gneE6 -gneE5 -gneE4 -gneE7 gneE3.9"/>
    </vehicle>
    <vehicle id="1_119" depart="190.60" departLane="random" departPos="base" departSpeed="random">
        <route edges="-gneE3.9 -gneE6 -gneE5 -gneE4 -gneE7 gneE3.9"/>
    </vehicle>
    <vehicle id="1_120" depart="192.20" departLane="random" departPos="base" departSpeed="random">
        <route edges="-gneE1.23 -gneE7 -gneE6 -gneE0"/>
    </vehicle>
    <vehicle id="1_121" depart="193.80" departLane="random" departPos="base" departSpeed="random">
        <route edges="-gneE1.23 -gneE7 gneE3.9"/>
    </vehicle>
    <vehicle id="1_122" depart="195.40" departLane="random" departPos="base" departSpeed="random">
        <route edges="gneE0 -gneE5 gneE2.9"/>
    </vehicle>
    <vehicle id="1_123" depart="197.00" departLane="random" departPos="base" departSpeed="random">
        <route edges="-gneE2.9 gneE5 -gneE0"/>
    </vehicle>
    <vehicle id="1_124" depart="198.60" departLane="random" departPos="base" departSpeed="random">
        <route edges="-gneE2.9 -gneE4 -gneE7 -gneE6 -gneE5 gneE2.9"/>
    </vehicle>
    <vehicle id="1_125" depart="200.20" departLane="random" departPos="base" departSpeed="random">
        <route edges="-gneE3.9 -gneE6 -gneE0"/>
    </vehicle>
    <vehicle id="1_126" depart="201.80" departLane="random" departPos="base" departSpeed="random">
        <route edges="-gneE2.9 -gneE4 -gneE7 gneE3.9"/>
    </vehicle>
    <vehicle id="1_127" depart="203.40" departLane="random" departPos="base" departSpeed="random">
        <route edges="-gneE1.23 -gneE7 gneE3.9"/>
    </vehicle>
    <vehicle id="1_128" depart="205.00" departLane="random" departPos="base" departSpeed="random">
        <route edges="-gneE1.23 -gneE7 -gneE6 -gneE0"/>
    </vehicle>
    <vehicle id="1_130" depart="208.20" departLane="random" departPos="base" departSpeed="random">
        <route edges="gneE0 gneE6 gneE3.9"/>
    </vehicle>
    <vehicle id="1_131" depart="209.80" departLane="random" departPos="base" departSpeed="random">
        <route edges="gneE0 gneE6 gneE3.9"/>
    </vehicle>
    <vehicle id="1_132" depart="211.40" departLane="random" departPos="base" departSpeed="random">
        <route edges="gneE0 -gneE5 -gneE4 gneE1.23"/>
    </vehicle>
    <vehicle id="1_133" depart="213.00" departLane="random" departPos="base" departSpeed="random">
        <route edges="gneE0 -gneE5 -gneE4 -gneE7 -gneE6 -gneE0"/>
    </vehicle>
    <vehicle id="1_134" depart="214.60" departLane="random" departPos="base" departSpeed="random">
        <route edges="gneE0 -gneE5 -gneE4 -gneE7 -gneE6 -gneE0"/>
    </vehicle>
    <vehicle id="1_136" depart="217.80" departLane="random" departPos="base" departSpeed="random">
        <route edges="gneE0 -gneE5 -gneE4 gneE1.23"/>
    </vehicle>
    <vehicle id="1_137" depart="219.40" departLane="random" departPos="base" departSpeed="random">
        <route edges="-gneE1.23 -gneE7 gneE3.9"/>
    </vehicle>
    <vehicle id="1_138" depart="221.00" departLane="random" departPos="base" departSpeed="random">
        <route edges="-gneE3.9 -gneE6 -gneE5 gneE2.9"/>
    </vehicle>
    <vehicle id="1_139" depart="222.60" departLane="random" departPos="base" departSpeed="random">
        <route edges="-gneE3.9 -gneE6 -gneE0"/>
    </vehicle>
    <vehicle id="1_141" depart="225.80" departLane="random" departPos="base" departSpeed="random">
        <route edges="-gneE2.9 -gneE4 -gneE7 gneE3.9"/>
    </vehicle>
    <vehicle id="1_142" depart="227.40" departLane="random" departPos="base" departSpeed="random">
        <route edges="-gneE3.9 -gneE6 -gneE5 gneE2.9"/>
    </vehicle>
    <vehicle id="1_143" depart="229.00" departLane="random" departPos="base" departSpeed="random">
        <route edges="-gneE2.9 -gneE4 -gneE7 gneE3.9"/>
    </vehicle>
    <vehicle id="1_144" depart="230.60" departLane="random" departPos="base" departSpeed="random">
        <route edges="-gneE2.9 -gneE4 gneE1.23"/>
    </vehicle>
    <vehicle id="1_145" depart="232.20" departLane="random" departPos="base" departSpeed="random">
        <route edges="-gneE3.9 -gneE6 -gneE5 -gneE4 -gneE7 gneE3.9"/>
    </vehicle>
    <vehicle id="1_146" depart="233.80" departLane="random" departPos="base" departSpeed="random">
        <route edges="-gneE2.9 -gneE4 gneE1.23"/>
    </vehicle>
    <vehicle id="1_147" depart="235.40" departLane="random" departPos="base" departSpeed="random">
        <route edges="gneE0 gneE6 gneE3.9"/>
    </vehicle>
    <vehicle id="1_149" depart="238.60" departLane="random" departPos="base" departSpeed="random">
        <route edges="-gneE3.9 gneE7 gneE1.23"/>
    </vehicle>
    <vehicle id="1_151" depart="241.80" departLane="random" departPos="base" departSpeed="random">
        <route edges="-gneE2.9 -gneE4 -gneE7 gneE3.9"/>
    </vehicle>
    <vehicle id="1_154" depart="246.60" departLane="random" departPos="base" departSpeed="random">
        <route edges="-gneE1.23 -gneE7 -gneE6 -gneE0"/>
    </vehicle>
    <vehicle id="1_158" depart="253.00" departLane="random" departPos="base" departSpeed="random">
        <route edges="-gneE1.23 -gneE7 gneE3.9"/>
    </vehicle>
    <vehicle id="1_160" depart="256.20" departLane="random" departPos="base" departSpeed="random">
        <route edges="gneE0 -gneE5 gneE2.9"/>
    </vehicle>
    <vehicle id="1_161" depart="257.80" departLane="random" departPos="base" departSpeed="random">
        <route edges="gneE0 -gneE5 gneE2.9"/>
    </vehicle>
    <vehicle id="1_163" depart="261.00" departLane="random" departPos="base" departSpeed="random">
        <route edges="-gneE1.23 -gneE7 -gneE6 -gneE0"/>
    </vehicle>
    <vehicle id="1_166" depart="265.80" departLane="random" departPos="base" departSpeed="random">
        <route edges="gneE0 -gneE5 -gneE4 -gneE7 -gneE6 -gneE0"/>
    </vehicle>
    <vehicle id="1_168" depart="269.00" departLane="random" departPos="base" departSpeed="random">
        <route edges="-gneE1.23 gneE4 gneE2.9"/>
    </vehicle>
    <vehicle id="1_169" depart="270.60" departLane="random" departPos="base" departSpeed="random">
        <route edges="-gneE1.23 -gneE7 -gneE6 -gneE0"/>
    </vehicle>
    <vehicle id="1_170" depart="272.20" departLane="random" departPos="base" departSpeed="random">
        <route edges="gneE0 -gneE5 -gneE4 -gneE7 -gneE6 -gneE0"/>
    </vehicle>
    <vehicle id="1_171" depart="273.80" departLane="random" departPos="base" departSpeed="random">
        <route edges="-gneE2.9 gneE5 -gneE0"/>
    </vehicle>
    <vehicle id="1_172" depart="275.40" departLane="random" departPos="base" departSpeed="random">
        <route edges="-gneE2.9 -gneE4 -gneE7 gneE3.9"/>
    </vehicle>
    <vehicle id="1_174" depart="278.60" departLane="random" departPos="base" departSpeed="random">
        <route edges="-gneE2.9 -gneE4 -gneE7 gneE3.9"/>
    </vehicle>
    <vehicle id="1_175" depart="280.20" departLane="random" departPos="base" departSpeed="random">
        <route edges="-gneE1.23 -gneE7 -gneE6 -gneE0"/>
    </vehicle>
    <vehicle id="1_176" depart="281.80" departLane="random" departPos="base" departSpeed="random">
        <route edges="-gneE1.23 -gneE7 -gneE6 -gneE5 -gneE4 gneE1.23"/>
    </vehicle>
    <vehicle id="1_178" depart="285.00" departLane="random" departPos="base" departSpeed="random">
        <route edges="-gneE1.23 -gneE7 -gneE6 -gneE0"/>
    </vehicle>
    <vehicle id="1_179" depart="286.60" departLane="random" departPos="base" departSpeed="random">
        <route edges="gneE0 -gneE5 -gneE4 gneE1.23"/>
    </vehicle>
    <vehicle id="1_180" depart="288.20" departLane="random" departPos="base" departSpeed="random">
        <route edges="-gneE3.9 -gneE6 -gneE0"/>
    </vehicle>
    <vehicle id="1_183" depart="293.00" departLane="random" departPos="base" departSpeed="random">
        <route edges="-gneE1.23 -gneE7 gneE3.9"/>
    </vehicle>
    <vehicle id="1_185" depart="296.20" departLane="random" departPos="base" departSpeed="random">
        <route edges="-gneE3.9 -gneE6 -gneE5 -gneE4 -gneE7 gneE3.9"/>
    </vehicle>
    <vehicle id="1_188" depart="301.00" departLane="random" departPos="base" departSpeed="random">
        <route edges="gneE0 -gneE5 gneE2.9"/>
    </vehicle>
    <vehicle id="1_189" depart="302.60" departLane="random" departPos="base" departSpeed="random">
        <route edges="-gneE1.23 gneE4 gneE2.9"/>
    </vehicle>
    <vehicle id="1_190" depart="304.20" departLane="random" departPos="base" departSpeed="random">
        <route edges="-gneE2.9 -gneE4 -gneE7 -gneE6 -gneE5 gneE2.9"/>
    </vehicle>
    <vehicle id="1_193" depart="309.00" departLane="random" departPos="base" departSpeed="random">
        <route edges="-gneE1.23 -gneE7 -gneE6 -gneE5 -gneE4 gneE1.23"/>
    </vehicle>
    <vehicle id="1_196" depart="313.80" departLane="random" departPos="base" departSpeed="random">
        <route edges="gneE0 -gneE5 -gneE4 gneE1.23"/>
    </vehicle>
    <vehicle id="1_199" depart="318.60" departLane="random" departPos="base" departSpeed="random">
        <route edges="-gneE3.9 -gneE6 -gneE5 -gneE4 -gneE7 gneE3.9"/>
    </vehicle>
    <vehicle id="1_202" depart="323.40" departLane="random" departPos="base" departSpeed="random">
        <route edges="-gneE2.9 -gneE4 -gneE7 -gneE6 -gneE5 gneE2.9"/>
    </vehicle>
    <vehicle id="1_203" depart="325.00" departLane="random" departPos="base" departSpeed="random">
        <route edges="gneE0 -gneE5 gneE2.9"/>
    </vehicle>
    <vehicle id="1_205" depart="328.20" departLane="random" departPos="base" departSpeed="random">
        <route edges="-gneE3.9 -gneE6 -gneE5 gneE2.9"/>
    </vehicle>
    <vehicle id="1_206" depart="329.80" departLane="random" departPos="base" departSpeed="random">
        <route edges="gneE0 -gneE5 -gneE4 gneE1.23"/>
    </vehicle>
    <vehicle id="1_208" depart="333.00" departLane="random" departPos="base" departSpeed="random">
        <route edges="-gneE2.9 -gneE4 -gneE7 -gneE6 -gneE5 gneE2.9"/>
    </vehicle>
    <vehicle id="1_209" depart="334.60" departLane="random" departPos="base" departSpeed="random">
        <route edges="gneE0 -gneE5 -gneE4 gneE1.23"/>
    </vehicle>
    <vehicle id="1_211" depart="337.80" departLane="random" departPos="base" departSpeed="random">
        <route edges="-gneE1.23 gneE4 gneE2.9"/>
    </vehicle>
    <vehicle id="1_212" depart="339.40" departLane="random" departPos="base" departSpeed="random">
        <route edges="gneE0 gneE6 gneE3.9"/>
    </vehicle>
    <vehicle id="1_213" depart="341.00" departLane="random" departPos="base" departSpeed="random">
        <route edges="-gneE2.9 -gneE4 -gneE7 -gneE6 -gneE5 gneE2.9"/>
    </vehicle>
    <vehicle id="1_214" depart="342.60" departLane="random" departPos="base" departSpeed="random">
        <route edges="gneE0 -gneE5 -gneE4 -gneE7 -gneE6 -gneE0"/>
    </vehicle>
    <vehicle id="1_215" depart="344.20" departLane="random" departPos="base" departSpeed="random">
        <route edges="-gneE2.9 -gneE4 -gneE7 gneE3.9"/>
    </vehicle>
    <vehicle id="1_217" depart="347.40" departLane="random" departPos="base" departSpeed="random">
        <route edges="-gneE1.23 gneE4 gneE2.9"/>
    </vehicle>
    <vehicle id="1_218" depart="349.00" departLane="random" departPos="base" departSpeed="random">
        <route edges="-gneE1.23 -gneE7 -gneE6 -gneE0"/>
    </vehicle>
    <vehicle id="1_219" depart="350.60" departLane="random" departPos="base" departSpeed="random">
        <route edges="-gneE3.9 -gneE6 -gneE5 -gneE4 -gneE7 gneE3.9"/>
    </vehicle>
    <vehicle id="1_222" depart="355.40" departLane="random" departPos="base" departSpeed="random">
        <route edges="gneE0 gneE6 gneE3.9"/>
    </vehicle>
    <vehicle id="1_223" depart="357.00" departLane="random" departPos="base" departSpeed="random">
        <route edges="-gneE2.9 -gneE4 -gneE7 -gneE6 -gneE5 gneE2.9"/>
    </vehicle>
    <vehicle id="1_224" depart="358.60" departLane="random" departPos="base" departSpeed="random">
        <route edges="-gneE2.9 -gneE4 gneE1.23"/>
    </vehicle>
    <vehicle id="1_226" depart="361.80" departLane="random" departPos="base" departSpeed="random">
        <route edges="gneE0 gneE6 gneE3.9"/>
    </vehicle>
    <vehicle id="1_228" depart="365.00" departLane="random" departPos="base" departSpeed="random">
        <route edges="gneE0 -gneE5 gneE2.9"/>
    </vehicle>
    <vehicle id="1_229" depart="366.60" departLane="random" departPos="base" departSpeed="random">
        <route edges="gneE0 -gneE5 -gneE4 gneE1.23"/>
    </vehicle>
    <vehicle id="1_232" depart="371.40" departLane="random" departPos="base" departSpeed="random">
        <route edges="-gneE2.9 -gneE4 gneE1.23"/>