<?xml version="1.0" encoding="UTF-8"?>

<!-- generated on Sun Oct 21 23:35:35 2018 by SUMO duarouter Version UNKNOWN
<configuration xmlns:xsi="http://www.w3.org/2001/XMLSchema-instance" xsi:noNamespaceSchemaLocation="http://sumo.dlr.de/xsd/duarouterConfiguration.xsd">

    <input>
        <net-file value="roundabout.net.xml"/>
        <route-files value="trips.trips.xml"/>
    </input>

    <output>
        <output-file value="temp0.rou.xml"/>
        <alternatives-output value="temp0.rou.alt.xml"/>
    </output>

    <processing>
        <ignore-errors value="true"/>
    </processing>

    <time>
        <begin value="0"/>
        <end value="0.1"/>
    </time>

    <report>
        <no-warnings value="true"/>
        <no-step-log value="true"/>
    </report>

</configuration>
-->

<routes xmlns:xsi="http://www.w3.org/2001/XMLSchema-instance" xsi:noNamespaceSchemaLocation="http://sumo.dlr.de/xsd/routes_file.xsd">
    <vType id="EgoCar" color="0,1,0"/>
    <vehicle id="ego" depart="0.00" departLane="random" departPos="random" departSpeed="random" type="EgoCar">
        <route edges="-gneE3.9 -gneE6 -gneE5 -gneE4 -gneE7 gneE3.9"/>
    </vehicle>
    <vehicle id="1" depart="0.00" departLane="random" departPos="random_free" departSpeed="random">
        <route edges="gneE0 gneE6 gneE3.9"/>
    </vehicle>
    <vehicle id="2" depart="0.01" departLane="random" departPos="random_free" departSpeed="random">
        <route edges="gneE0 -gneE5 -gneE4 gneE1.23"/>
    </vehicle>
    <vehicle id="3" depart="0.01" departLane="random" departPos="random_free" departSpeed="random">
        <route edges="-gneE2.9 -gneE4 gneE1.23"/>
    </vehicle>
    <vehicle id="4" depart="0.02" departLane="random" departPos="random_free" departSpeed="random">
        <route edges="-gneE5 -gneE4 -gneE7 gneE3.9"/>
    </vehicle>
    <vehicle id="5" depart="0.02" departLane="random" departPos="random_free" departSpeed="random">
        <route edges="-gneE2.9 -gneE4 -gneE7 -gneE6 -gneE5 gneE2.9"/>
    </vehicle>
    <vehicle id="6" depart="0.02" departLane="random" departPos="random_free" departSpeed="random">
        <route edges="-gneE1.23 -gneE7 -gneE6"/>
    </vehicle>
    <vehicle id="7" depart="0.03" departLane="random" departPos="random_free" departSpeed="random">
        <route edges="-gneE1.23 -gneE7 -gneE6 -gneE5 -gneE4 gneE1.23"/>
    </vehicle>
    <vehicle id="8" depart="0.03" departLane="random" departPos="random_free" departSpeed="random">
        <route edges="-gneE3.9 -gneE6 -gneE5 gneE2.9"/>
    </vehicle>
    <vehicle id="9" depart="0.04" departLane="random" departPos="random_free" departSpeed="random">
        <route edges="gneE0 -gneE5 -gneE4 gneE1.23"/>
    </vehicle>
    <vehicle id="10" depart="0.04" departLane="random" departPos="random_free" departSpeed="random">
        <route edges="gneE4 gneE5 gneE6 gneE7 gneE1.23"/>
    </vehicle>
    <vehicle id="11" depart="0.04" departLane="random" departPos="random_free" departSpeed="random">
        <route edges="gneE0 -gneE5 gneE2.9"/>
    </vehicle>
    <vehicle id="12" depart="0.05" departLane="random" departPos="random_free" departSpeed="random">
        <route edges="-gneE1.23 gneE4 gneE2.9"/>
    </vehicle>
    <vehicle id="13" depart="0.05" departLane="random" departPos="random_free" departSpeed="random">
        <route edges="-gneE3.9 -gneE6 -gneE5 -gneE4 -gneE7 gneE3.9"/>
    </vehicle>
    <vehicle id="14" depart="0.06" departLane="random" departPos="random_free" departSpeed="random">
        <route edges="-gneE3.9 gneE7 gneE4 gneE5"/>
    </vehicle>
    <vehicle id="15" depart="0.06" departLane="random" departPos="random_free" departSpeed="random">
        <route edges="-gneE1.23 gneE4 gneE5 gneE6"/>
    </vehicle>
    <vehicle id="16" depart="0.06" departLane="random" departPos="random_free" departSpeed="random">
        <route edges="gneE0 gneE6 gneE3.9"/>
    </vehicle>
    <vehicle id="17" depart="0.07" departLane="random" departPos="random_free" departSpeed="random">
        <route edges="gneE0 -gneE5 -gneE4 -gneE7 -gneE6 -gneE0"/>
    </vehicle>
    <vehicle id="18" depart="0.07" departLane="random" departPos="random_free" departSpeed="random">
        <route edges="gneE0 -gneE5 gneE2.9"/>
    </vehicle>
    <vehicle id="19" depart="0.08" departLane="random" departPos="random_free" departSpeed="random">
        <route edges="-gneE2.9 -gneE4 -gneE7 -gneE6 -gneE5 gneE2.9"/>
    </vehicle>
    <vehicle id="20" depart="0.08" departLane="random" departPos="random_free" departSpeed="random">
        <route edges="-gneE2.9 gneE5 gneE6 gneE7"/>
    </vehicle>
    <vehicle id="21" depart="0.08" departLane="random" departPos="random_free" departSpeed="random">
        <route edges="gneE0 -gneE5 -gneE4 -gneE7 -gneE6 -gneE0"/>
    </vehicle>
    <vehicle id="22" depart="0.09" departLane="random" departPos="random_free" departSpeed="random">
        <route edges="-gneE1.23 -gneE7 -gneE6 -gneE0"/>
    </vehicle>
    <vehicle id="23" depart="0.09" departLane="random" departPos="random_free" departSpeed="random">
        <route edges="-gneE7 -gneE6 -gneE5 gneE2.9"/>
    </vehicle>
    <vehicle id="1_0" depart="0.20" departLane="random" departPos="base" departSpeed="random">
        <route edges="-gneE3.9 gneE7 gneE1.23"/>
    </vehicle>
    <vehicle id="1_3" depart="5.00" departLane="random" departPos="base" departSpeed="random">
        <route edges="-gneE2.9 -gneE4 -gneE7 -gneE6 -gneE5 gneE2.9"/>
    </vehicle>
    <vehicle id="1_4" depart="6.60" departLane="random" departPos="base" departSpeed="random">
        <route edges="-gneE1.23 gneE4 gneE2.9"/>
    </vehicle>
    <vehicle id="1_5" depart="8.20" departLane="random" departPos="base" departSpeed="random">
        <route edges="-gneE3.9 -gneE6 -gneE0"/>
    </vehicle>
    <vehicle id="1_8" depart="13.00" departLane="random" departPos="base" departSpeed="random">
        <route edges="-gneE1.23 gneE4 gneE2.9"/>
    </vehicle>
    <vehicle id="1_9" depart="14.60" departLane="random" departPos="base" departSpeed="random">
        <route edges="gneE0 -gneE5 gneE2.9"/>
    </vehicle>
    <vehicle id="1_10" depart="16.20" departLane="random" departPos="base" departSpeed="random">
        <route edges="-gneE2.9 -gneE4 gneE1.23"/>
    </vehicle>
    <vehicle id="1_11" depart="17.80" departLane="random" departPos="base" departSpeed="random">
        <route edges="-gneE3.9 -gneE6 -gneE5 -gneE4 -gneE7 gneE3.9"/>
    </vehicle>
    <vehicle id="1_12" depart="19.40" departLane="random" departPos="base" departSpeed="random">
        <route edges="-gneE1.23 -gneE7 -gneE6 -gneE0"/>
    </vehicle>
    <vehicle id="1_13" depart="21.00" departLane="random" departPos="base" departSpeed="random">
        <route edges="-gneE1.23 -gneE7 gneE3.9"/>
    </vehicle>
    <vehicle id="1_14" depart="22.60" departLane="random" departPos="base" departSpeed="random">
        <route edges="-gneE3.9 -gneE6 -gneE5 gneE2.9"/>
    </vehicle>
    <vehicle id="1_15" depart="24.20" departLane="random" departPos="base" departSpeed="random">
        <route edges="-gneE3.9 -gneE6 -gneE5 -gneE4 -gneE7 gneE3.9"/>
    </vehicle>
    <vehicle id="1_17" depart="27.40" departLane="random" departPos="base" departSpeed="random">
        <route edges="-gneE3.9 gneE7 gneE1.23"/>
    </vehicle>
    <vehicle id="1_18" depart="29.00" departLane="random" departPos="base" departSpeed="random">
        <route edges="gneE0 -gneE5 gneE2.9"/>
    </vehicle>
    <vehicle id="1_19" depart="30.60" departLane="random" departPos="base" departSpeed="random">
        <route edges="-gneE3.9 -gneE6 -gneE5 -gneE4 -gneE7 gneE3.9"/>
    </vehicle>
    <vehicle id="1_21" depart="33.80" departLane="random" departPos="base" departSpeed="random">
        <route edges="-gneE2.9 -gneE4 -gneE7 gneE3.9"/>
    </vehicle>
    <vehicle id="1_22" depart="35.40" departLane="random" departPos="base" departSpeed="random">
        <route edges="gneE0 -gneE5 gneE2.9"/>
    </vehicle>
    <vehicle id="1_23" depart="37.00" departLane="random" departPos="base" departSpeed="random">
        <route edges="gneE0 gneE6 gneE3.9"/>
    </vehicle>
    <vehicle id="1_24" depart="38.60" departLane="random" departPos="base" departSpeed="random">
        <route edges="-gneE2.9 -gneE4 -gneE7 gneE3.9"/>
    </vehicle>
    <vehicle id="1_25" depart="40.20" departLane="random" departPos="base" departSpeed="random">
        <route edges="gneE0 gneE6 gneE3.9"/>
    </vehicle>
    <vehicle id="1_28" depart="45.00" departLane="random" departPos="base" departSpeed="random">
        <route edges="-gneE2.9 gneE5 -gneE0"/>
    </vehicle>
    <vehicle id="1_29" depart="46.60" departLane="random" departPos="base" departSpeed="random">
        <route edges="-gneE2.9 -gneE4 -gneE7 -gneE6 -gneE5 gneE2.9"/>
    </vehicle>
    <vehicle id="1_31" depart="49.80" departLane="random" departPos="base" departSpeed="random">
        <route edges="-gneE3.9 -gneE6 -gneE5 -gneE4 -gneE7 gneE3.9"/>
    </vehicle>
    <vehicle id="1_32" depart="51.40" departLane="random" departPos="base" departSpeed="random">
        <route edges="gneE0 -gneE5 gneE2.9"/>
    </vehicle>
    <vehicle id="1_33" depart="53.00" departLane="random" departPos="base" departSpeed="random">
        <route edges="-gneE3.9 -gneE6 -gneE5 -gneE4 -gneE7 gneE3.9"/>
    </vehicle>
    <vehicle id="1_36" depart="57.80" departLane="random" departPos="base" departSpeed="random">
        <route edges="-gneE1.23 -gneE7 -gneE6 -gneE5 -gneE4 gneE1.23"/>
    </vehicle>
    <vehicle id="1_37" depart="59.40" departLane="random" departPos="base" departSpeed="random">
        <route edges="-gneE3.9 -gneE6 -gneE5 -gneE4 -gneE7 gneE3.9"/>
    </vehicle>
    <vehicle id="1_38" depart="61.00" departLane="random" departPos="base" departSpeed="random">
        <route edges="-gneE1.23 -gneE7 -gneE6 -gneE5 -gneE4 gneE1.23"/>
    </vehicle>
    <vehicle id="1_39" depart="62.60" departLane="random" departPos="base" departSpeed="random">
        <route edges="-gneE2.9 -gneE4 -gneE7 -gneE6 -gneE5 gneE2.9"/>
    </vehicle>
    <vehicle id="1_40" depart="64.20" departLane="random" departPos="base" departSpeed="random">
        <route edges="-gneE1.23 -gneE7 gneE3.9"/>
    </vehicle>
    <vehicle id="1_41" depart="65.80" departLane="random" departPos="base" departSpeed="random">
        <route edges="-gneE1.23 gneE4 gneE2.9"/>
    </vehicle>
    <vehicle id="1_42" depart="67.40" departLane="random" departPos="base" departSpeed="random">
        <route edges="-gneE2.9 -gneE4 -gneE7 gneE3.9"/>
    </vehicle>
    <vehicle id="1_43" depart="69.00" departLane="random" departPos="base" departSpeed="random">
        <route edges="-gneE3.9 -gneE6 -gneE5 gneE2.9"/>
    </vehicle>
    <vehicle id="1_44" depart="70.60" departLane="random" departPos="base" departSpeed="random">
        <route edges="-gneE3.9 -gneE6 -gneE5 -gneE4 -gneE7 gneE3.9"/>
    </vehicle>
    <vehicle id="1_47" depart="75.40" departLane="random" departPos="base" departSpeed="random">
        <route edges="-gneE3.9 -gneE6 -gneE0"/>
    </vehicle>
    <vehicle id="1_49" depart="78.60" departLane="random" departPos="base" departSpeed="random">
        <route edges="-gneE2.9 -gneE4 -gneE7 gneE3.9"/>
    </vehicle>
    <vehicle id="1_51" depart="81.80" departLane="random" departPos="base" departSpeed="random">
        <route edges="gneE0 -gneE5 gneE2.9"/>
    </vehicle>
    <vehicle id="1_55" depart="88.20" departLane="random" departPos="base" departSpeed="random">
        <route edges="-gneE2.9 -gneE4 -gneE7 gneE3.9"/>
    </vehicle>
    <vehicle id="1_56" depart="89.80" departLane="random" departPos="base" departSpeed="random">
        <route edges="-gneE1.23 -gneE7 -gneE6 -gneE0"/>
    </vehicle>
    <vehicle id="1_58" depart="93.00" departLane="random" departPos="base" departSpeed="random">
        <route edges="-gneE2.9 -gneE4 -gneE7 -gneE6 -gneE5 gneE2.9"/>
    </vehicle>
    <vehicle id="1_59" depart="94.60" departLane="random" departPos="base" departSpeed="random">
        <route edges="-gneE3.9 -gneE6 -gneE0"/>
    </vehicle>
    <vehicle id="1_62" depart="99.40" departLane="random" departPos="base" departSpeed="random">
        <route edges="-gneE3.9 -gneE6 -gneE0"/>
    </vehicle>
    <vehicle id="1_63" depart="101.00" departLane="random" departPos="base" departSpeed="random">
        <route edges="gneE0 gneE6 gneE3.9"/>
    </vehicle>
    <vehicle id="1_67" depart="107.40" departLane="random" departPos="base" departSpeed="random">
        <route edges="-gneE3.9 gneE7 gneE1.23"/>
    </vehicle>
    <vehicle id="1_68" depart="109.00" departLane="random" departPos="base" departSpeed="random">
        <route edges="-gneE2.9 -gneE4 gneE1.23"/>
    </vehicle>
    <vehicle id="1_69" depart="110.60" departLane="random" departPos="base" departSpeed="random">
        <route edges="-gneE1.23 -gneE7 -gneE6 -gneE0"/>
    </vehicle>
    <vehicle id="1_73" depart="117.00" departLane="random" departPos="base" departSpeed="random">
        <route edges="-gneE1.23 -gneE7 gneE3.9"/>
    </vehicle>
    <vehicle id="1_74" depart="118.60" departLane="random" departPos="base" departSpeed="random">
        <route edges="-gneE1.23 -gneE7 -gneE6 -gneE0"/>
    </vehicle>
    <vehicle id="1_76" depart="121.80" departLane="random" departPos="base" departSpeed="random">
        <route edges="-gneE1.23 -gneE7 -gneE6 -gneE0"/>
    </vehicle>
    <vehicle id="1_77" depart="123.40" departLane="random" departPos="base" departSpeed="random">
        <route edges="gneE0 -gneE5 -gneE4 -gneE7 -gneE6 -gneE0"/>
    </vehicle>
    <vehicle id="1_79" depart="126.60" departLane="random" departPos="base" departSpeed="random">
        <route edges="-gneE3.9 -gneE6 -gneE5 -gneE4 -gneE7 gneE3.9"/>
    </vehicle>
    <vehicle id="1_80" depart="128.20" departLane="random" departPos="base" departSpeed="random">
        <route edges="-gneE1.23 -gneE7 gneE3.9"/>
    </vehicle>
    <vehicle id="1_81" depart="129.80" departLane="random" departPos="base" departSpeed="random">
        <route edges="-gneE1.23 gneE4 gneE2.9"/>
    </vehicle>
    <vehicle id="1_83" depart="133.00" departLane="random" departPos="base" departSpeed="random">
        <route edges="-gneE3.9 -gneE6 -gneE5 gneE2.9"/>
    </vehicle>
    <vehicle id="1_84" depart="134.60" departLane="random" departPos="base" departSpeed="random">
        <route edges="-gneE1.23 -gneE7 -gneE6 -gneE5 -gneE4 gneE1.23"/>
    </vehicle>
    <vehicle id="1_85" depart="136.20" departLane="random" departPos="base" departSpeed="random">
        <route edges="-gneE2.9 -gneE4 gneE1.23"/>
    </vehicle>
    <vehicle id="1_87" depart="139.40" departLane="random" departPos="base" departSpeed="random">
        <route edges="-gneE3.9 -gneE6 -gneE5 gneE2.9"/>
    </vehicle>
    <vehicle id="1_88" depart="141.00" departLane="random" departPos="base" departSpeed="random">
        <route edges="-gneE1.23 -gneE7 -gneE6 -gneE5 -gneE4 gneE1.23"/>
    </vehicle>
    <vehicle id="1_89" depart="142.60" departLane="random" departPos="base" departSpeed="random">
        <route edges="gneE0 -gneE5 -gneE4 gneE1.23"/>
    </vehicle>
    <vehicle id="1_90" depart="144.20" departLane="random" departPos="base" departSpeed="random">
        <route edges="-gneE2.9 gneE5 -gneE0"/>
    </vehicle>
    <vehicle id="1_91" depart="145.80" departLane="random" departPos="base" departSpeed="random">
        <route edges="-gneE1.23 -gneE7 -gneE6 -gneE5 -gneE4 gneE1.23"/>
    </vehicle>
    <vehicle id="1_95" depart="152.20" departLane="random" departPos="base" departSpeed="random">
        <route edges="-gneE2.9 gneE5 -gneE0"/>
    </vehicle>
    <vehicle id="1_96" depart="153.80" departLane="random" departPos="base" departSpeed="random">
        <route edges="-gneE2.9 -gneE4 gneE1.23"/>
    </vehicle>
    <vehicle id="1_97" depart="155.40" departLane="random" departPos="base" departSpeed="random">
        <route edges="-gneE2.9 -gneE4 -gneE7 gneE3.9"/>
    </vehicle>
    <vehicle id="1_99" depart="158.60" departLane="random" departPos="base" departSpeed="random">
        <route edges="-gneE1.23 -gneE7 -gneE6 -gneE0"/>
    </vehicle>
    <vehicle id="1_100" depart="160.20" departLane="random" departPos="base" departSpeed="random">
        <route edges="gneE0 -gneE5 -gneE4 -gneE7 -gneE6 -gneE0"/>
    </vehicle>
    <vehicle id="1_101" depart="161.80" departLane="random" departPos="base" departSpeed="random">
        <route edges="-gneE3.9 gneE7 gneE1.23"/>
    </vehicle>
    <vehicle id="1_102" depart="163.40" departLane="random" departPos="base" departSpeed="random">
        <route edges="gneE0 gneE6 gneE3.9"/>
    </vehicle>
    <vehicle id="1_103" depart="165.00" departLane="random" departPos="base" departSpeed="random">
        <route edges="-gneE3.9 gneE7 gneE1.23"/>
    </vehicle>
    <vehicle id="1_104" depart="166.60" departLane="random" departPos="base" departSpeed="random">
        <route edges="-gneE3.9 -gneE6 -gneE5 -gneE4 -gneE7 gneE3.9"/>
    </vehicle>
    <vehicle id="1_105" depart="168.20" departLane="random" departPos="base" departSpeed="random">
        <route edges="-gneE3.9 -gneE6 -gneE0"/>
    </vehicle>
    <vehicle id="1_106" depart="169.80" departLane="random" departPos="base" departSpeed="random">
        <route edges="-gneE3.9 -gneE6 -gneE5 gneE2.9"/>
    </vehicle>
    <vehicle id="1_110" depart="176.20" departLane="random" departPos="base" departSpeed="random">
        <route edges="gneE0 gneE6 gneE3.9"/>
    </vehicle>
    <vehicle id="1_111" depart="177.80" departLane="random" departPos="base" departSpeed="random">
        <route edges="-gneE1.23 -gneE7 gneE3.9"/>
    </vehicle>
    <vehicle id="1_112" depart="179.40" departLane="random" departPos="base" departSpeed="random">
        <route edges="-gneE3.9 -gneE6 -gneE5 -gneE4 -gneE7 gneE3.9"/>
    </vehicle>
    <vehicle id="1_114" depart="182.60" departLane="random" departPos="base" departSpeed="random">
        <route edges="-gneE2.9 -gneE4 -gneE7 gneE3.9"/>
    </vehicle>
    <vehicle id="1_115" depart="184.20" departLane="random" departPos="base" departSpeed="random">
        <route edges="-gneE2.9 -gneE4 gneE1.23"/>
    </vehicle>
    <vehicle id="1_118" depart="189.00" departLane="random" departPos="base" departSpeed="random">
        <route edges="-gneE3.9 -gneE6 -gneE5 gneE2.9"/>
    </vehicle>
    <vehicle id="1_121" depart="193.80" departLane="random" departPos="base" departSpeed="random">
        <route edges="gneE0 -gneE5 -gneE4 gneE1.23"/>
    </vehicle>
    <vehicle id="1_122" depart="195.40" departLane="random" departPos="base" departSpeed="random">
        <route edges="-gneE2.9 -gneE4 -gneE7 gneE3.9"/>
    </vehicle>
    <vehicle id="1_123" depart="197.00" departLane="random" departPos="base" departSpeed="random">
        <route edges="-gneE1.23 -gneE7 -gneE6 -gneE5 -gneE4 gneE1.23"/>
    </vehicle>
    <vehicle id="1_124" depart="198.60" departLane="random" departPos="base" departSpeed="random">
        <route edges="-gneE2.9 -gneE4 -gneE7 gneE3.9"/>
    </vehicle>
    <vehicle id="1_126" depart="201.80" departLane="random" departPos="base" departSpeed="random">
        <route edges="gneE0 -gneE5 gneE2.9"/>
    </vehicle>
    <vehicle id="1_129" depart="206.60" departLane="random" departPos="base" departSpeed="random">
        <route edges="-gneE3.9 gneE7 gneE1.23"/>
    </vehicle>
    <vehicle id="1_130" depart="208.20" departLane="random" departPos="base" departSpeed="random">
        <route edges="gneE0 -gneE5 -gneE4 -gneE7 -gneE6 -gneE0"/>
    </vehicle>
    <vehicle id="1_134" depart="214.60" departLane="random" departPos="base" departSpeed="random">
        <route edges="-gneE1.23 -gneE7 -gneE6 -gneE0"/>
    </vehicle>
    <vehicle id="1_135" depart="216.20" departLane="random" departPos="base" departSpeed="random">
        <route edges="-gneE1.23 gneE4 gneE2.9"/>
    </vehicle>
    <vehicle id="1_136" depart="217.80" departLane="random" departPos="base" departSpeed="random">
        <route edges="-gneE1.23 gneE4 gneE2.9"/>
    </vehicle>
    <vehicle id="1_137" depart="219.40" departLane="random" departPos="base" departSpeed="random">
        <route edges="gneE0 -gneE5 -gneE4 gneE1.23"/>
    </vehicle>
    <vehicle id="1_138" depart="221.00" departLane="random" departPos="base" departSpeed="random">
        <route edges="gneE0 -gneE5 -gneE4 gneE1.23"/>
    </vehicle>
    <vehicle id="1_139" depart="222.60" departLane="random" departPos="base" departSpeed="random">
        <route edges="-gneE1.23 gneE4 gneE2.9"/>
    </vehicle>
    <vehicle id="1_140" depart="224.20" departLane="random" departPos="base" departSpeed="random">
        <route edges="gneE0 -gneE5 -gneE4 -gneE7 -gneE6 -gneE0"/>
    </vehicle>
    <vehicle id="1_142" depart="227.40" departLane="random" departPos="base" departSpeed="random">
        <route edges="-gneE2.9 -gneE4 gneE1.23"/>
    </vehicle>
    <vehicle id="1_143" depart="229.00" departLane="random" departPos="base" departSpeed="random">
        <route edges="-gneE1.23 gneE4 gneE2.9"/>
    </vehicle>
    <vehicle id="1_144" depart="230.60" departLane="random" departPos="base" departSpeed="random">
        <route edges="-gneE2.9 -gneE4 -gneE7 gneE3.9"/>
    </vehicle>
    <vehicle id="1_145" depart="232.20" departLane="random" departPos="base" departSpeed="random">
        <route edges="gneE0 -gneE5 gneE2.9"/>
    </vehicle>
    <vehicle id="1_146" depart="233.80" departLane="random" departPos="base" departSpeed="random">
        <route edges="-gneE3.9 -gneE6 -gneE5 gneE2.9"/>
    </vehicle>
    <vehicle id="1_148" depart="237.00" departLane="random" departPos="base" departSpeed="random">
        <route edges="gneE0 -gneE5 gneE2.9"/>
    </vehicle>
    <vehicle id="1_149" depart="238.60" departLane="random" departPos="base" departSpeed="random">
        <route edges="-gneE3.9 -gneE6 -gneE0"/>
    </vehicle>
    <vehicle id="1_152" depart="243.40" departLane="random" departPos="base" departSpeed="random">
        <route edges="gneE0 -gneE5 -gneE4 -gneE7 -gneE6 -gneE0"/>
    </vehicle>
    <vehicle id="1_153" depart="245.00" departLane="random" departPos="base" departSpeed="random">
        <route edges="-gneE3.9 -gneE6 -gneE0"/>
    </vehicle>
    <vehicle id="1_155" depart="248.20" departLane="random" departPos="base" departSpeed="random">
        <route edges="gneE0 -gneE5 -gneE4 gneE1.23"/>
    </vehicle>
    <vehicle id="1_156" depart="249.80" departLane="random" departPos="base" departSpeed="random">
        <route edges="gneE0 -gneE5 -gneE4 gneE1.23"/>
    </vehicle>
    <vehicle id="1_157" depart="251.40" departLane="random" departPos="base" departSpeed="random">
        <route edges="-gneE3.9 -gneE6 -gneE0"/>
    </vehicle>
    <vehicle id="1_161" depart="257.80" departLane="random" departPos="base" departSpeed="random">
        <route edges="gneE0 -gneE5 -gneE4 -gneE7 -gneE6 -gneE0"/>
    </vehicle>
    <vehicle id="1_164" depart="262.60" departLane="random" departPos="base" departSpeed="random">
        <route edges="-gneE3.9 gneE7 gneE1.23"/>
    </vehicle>
    <vehicle id="1_165" depart="264.20" departLane="random" departPos="base" departSpeed="random">
        <route edges="-gneE2.9 -gneE4 -gneE7 gneE3.9"/>
    </vehicle>
    <vehicle id="1_166" depart="265.80" departLane="random" departPos="base" departSpeed="random">
        <route edges="-gneE1.23 -gneE7 -gneE6 -gneE5 -gneE4 gneE1.23"/>
    </vehicle>
    <vehicle id="1_167" depart="267.40" departLane="random" departPos="base" departSpeed="random">
        <route edges="-gneE2.9 -gneE4 -gneE7 gneE3.9"/>
    </vehicle>
    <vehicle id="1_168" depart="269.00" departLane="random" departPos="base" departSpeed="random">
        <route edges="-gneE3.9 -gneE6 -gneE0"/>
    </vehicle>
    <vehicle id="1_169" depart="270.60" departLane="random" departPos="base" departSpeed="random">
        <route edges="gneE0 -gneE5 gneE2.9"/>
    </vehicle>
    <vehicle id="1_170" depart="272.20" departLane="random" departPos="base" departSpeed="random">
        <route edges="gneE0 -gneE5 -gneE4 -gneE7 -gneE6 -gneE0"/>
    </vehicle>
    <vehicle id="1_171" depart="273.80" departLane="random" departPos="base" departSpeed="random">
        <route edges="-gneE3.9 -gneE6 -gneE5 gneE2.9"/>
    </vehicle>
    <vehicle id="1_172" depart="275.40" departLane="random" departPos="base" departSpeed="random">
        <route edges="gneE0 -gneE5 -gneE4 gneE1.23"/>
    </vehicle>
    <vehicle id="1_174" depart="278.60" departLane="random" departPos="base" departSpeed="random">
        <route edges="-gneE3.9 gneE7 gneE1.23"/>
    </vehicle>
    <vehicle id="1_175" depart="280.20" departLane="random" departPos="base" departSpeed="random">
        <route edges="-gneE1.23 -gneE7 gneE3.9"/>
    </vehicle>
    <vehicle id="1_177" depart="283.40" departLane="random" departPos="base" departSpeed="random">
        <route edges="-gneE3.9 -gneE6 -gneE5 -gneE4 -gneE7 gneE3.9"/>
    </vehicle>
    <vehicle id="1_180" depart="288.20" departLane="random" departPos="base" departSpeed="random">
        <route edges="gneE0 -gneE5 gneE2.9"/>
    </vehicle>
    <vehicle id="1_182" depart="291.40" departLane="random" departPos="base" departSpeed="random">
        <route edges="gneE0 -gneE5 -gneE4 gneE1.23"/>
    </vehicle>
    <vehicle id="1_183" depart="293.00" departLane="random" departPos="base" departSpeed="random">
        <route edges="-gneE3.9 -gneE6 -gneE0"/>
    </vehicle>
    <vehicle id="1_184" depart="294.60" departLane="random" departPos="base" departSpeed="random">
        <route edges="-gneE2.9 -gneE4 -gneE7 gneE3.9"/>
    </vehicle>
    <vehicle id="1_185" depart="296.20" departLane="random" departPos="base" departSpeed="random">
        <route edges="-gneE2.9 -gneE4 -gneE7 gneE3.9"/>
    </vehicle>
    <vehicle id="1_186" depart="297.80" departLane="random" departPos="base" departSpeed="random">
        <route edges="gneE0 -gneE5 -gneE4 -gneE7 -gneE6 -gneE0"/>
    </vehicle>
    <vehicle id="1_187" depart="299.40" departLane="random" departPos="base" departSpeed="random">
        <route edges="-gneE3.9 gneE7 gneE1.23"/>
    </vehicle>
    <vehicle id="1_188" depart="301.00" departLane="random" departPos="base" departSpeed="random">
        <route edges="-gneE2.9 -gneE4 gneE1.23"/>
    </vehicle>
    <vehicle id="1_189" depart="302.60" departLane="random" departPos="base" departSpeed="random">
        <route edges="-gneE3.9 gneE7 gneE1.23"/>
    </vehicle>
    <vehicle id="1_190" depart="304.20" departLane="random" departPos="base" departSpeed="random">
        <route edges="-gneE2.9 -gneE4 -gneE7 gneE3.9"/>
    </vehicle>
    <vehicle id="1_191" depart="305.80" departLane="random" departPos="base" departSpeed="random">
        <route edges="-gneE2.9 -gneE4 gneE1.23"/>
    </vehicle>
    <vehicle id="1_196" depart="313.80" departLane="random" departPos="base" departSpeed="random">
        <route edges="-gneE1.23 -gneE7 gneE3.9"/>
    </vehicle>
    <vehicle id="1_197" depart="315.40" departLane="random" departPos="base" departSpeed="random">
        <route edges="-gneE2.9 -gneE4 -gneE7 gneE3.9"/>
    </vehicle>
    <vehicle id="1_198" depart="317.00" departLane="random" departPos="base" departSpeed="random">
        <route edges="-gneE1.23 -gneE7 -gneE6 -gneE5 -gneE4 gneE1.23"/>
    </vehicle>
    <vehicle id="1_199" depart="318.60" departLane="random" departPos="base" departSpeed="random">
        <route edges="-gneE3.9 -gneE6 -gneE5 gneE2.9"/>
    </vehicle>
    <vehicle id="1_200" depart="320.20" departLane="random" departPos="base" departSpeed="random">
        <route edges="-gneE1.23 gneE4 gneE2.9"/>
    </vehicle>
    <vehicle id="1_201" depart="321.80" departLane="random" departPos="base" departSpeed="random">
        <route edges="-gneE2.9 -gneE4 gneE1.23"/>
    </vehicle>
    <vehicle id="1_202" depart="323.40" departLane="random" departPos="base" departSpeed="random">
        <route edges="-gneE1.23 gneE4 gneE2.9"/>
    </vehicle>
    <vehicle id="1_204" depart="326.60" departLane="random" departPos="base" departSpeed="random">
        <route edges="gneE0 -gneE5 -gneE4 gneE1.23"/>
    </vehicle>
    <vehicle id="1_207" depart="331.40" departLane="random" departPos="base" departSpeed="random">
        <route edges="-gneE2.9 -gneE4 -gneE7 gneE3.9"/>
    </vehicle>
    <vehicle id="1_208" depart="333.00" departLane="random" departPos="base" departSpeed="random">
        <route edges="-gneE2.9 -gneE4 -gneE7 -gneE6 -gneE5 gneE2.9"/>
    </vehicle>
    <vehicle id="1_210" depart="336.20" departLane="random" departPos="base" departSpeed="random">
        <route edges="-gneE1.23 gneE4 gneE2.9"/>
    </vehicle>
    <vehicle id="1_211" depart="337.80" departLane="random" departPos="base" departSpeed="random">
        <route edges="-gneE3.9 -gneE6 -gneE5 -gneE4 -gneE7 gneE3.9"/>
    </vehicle>
    <vehicle id="1_213" depart="341.00" departLane="random" departPos="base" departSpeed="random">
        <route edges="-gneE2.9 -gneE4 -gneE7 gneE3.9"/>
    </vehicle>
    <vehicle id="1_214" depart="342.60" departLane="random" departPos="base" departSpeed="random">
        <route edges="-gneE2.9 -gneE4 -gneE7 -gneE6 -gneE5 gneE2.9"/>
    </vehicle>
    <vehicle id="1_216" depart="345.80" departLane="random" departPos="base" departSpeed="random">
        <route edges="-gneE1.23 -gneE7 -gneE6 -gneE0"/>
    </vehicle>
    <vehicle id="1_217" depart="347.40" departLane="random" departPos="base" departSpeed="random">
        <route edges="-gneE3.9 -gneE6 -gneE5 -gneE4 -gneE7 gneE3.9"/>
    </vehicle>
    <vehicle id="1_218" depart="349.00" departLane="random" departPos="base" departSpeed="random">
        <route edges="-gneE2.9 gneE5 -gneE0"/>
    </vehicle>
    <vehicle id="1_219" depart="350.60" departLane="random" departPos="base" departSpeed="random">
        <route edges="-gneE3.9 -gneE6 -gneE5 -gneE4 -gneE7 gneE3.9"/>
    </vehicle>
    <vehicle id="1_221" depart="353.80" departLane="random" departPos="base" departSpeed="random">
        <route edges="-gneE1.23 -gneE7 gneE3.9"/>
    </vehicle>