<?xml version="1.0" encoding="UTF-8"?>

<!-- generated on Mon Oct 22 01:55:59 2018 by SUMO duarouter Version UNKNOWN
<configuration xmlns:xsi="http://www.w3.org/2001/XMLSchema-instance" xsi:noNamespaceSchemaLocation="http://sumo.dlr.de/xsd/duarouterConfiguration.xsd">

    <input>
        <net-file value="roundabout.net.xml"/>
        <route-files value="trips.trips.xml"/>
    </input>

    <output>
        <output-file value="temp0.rou.xml"/>
        <alternatives-output value="temp0.rou.alt.xml"/>
    </output>

    <processing>
        <ignore-errors value="true"/>
    </processing>

    <time>
        <begin value="0"/>
        <end value="0.1"/>
    </time>

    <report>
        <no-warnings value="true"/>
        <no-step-log value="true"/>
    </report>

</configuration>
-->

<routes xmlns:xsi="http://www.w3.org/2001/XMLSchema-instance" xsi:noNamespaceSchemaLocation="http://sumo.dlr.de/xsd/routes_file.xsd">
    <vType id="EgoCar" color="0,1,0"/>
    <vehicle id="ego" depart="0.00" departLane="random" departPos="random" departSpeed="random" type="EgoCar">
        <route edges="-gneE1.23 -gneE7 -gneE6 -gneE0"/>
    </vehicle>
    <vehicle id="1" depart="0.00" departLane="random" departPos="random_free" departSpeed="random">
        <route edges="-gneE7 -gneE6 -gneE5 -gneE4 gneE1.23"/>
    </vehicle>
    <vehicle id="2" depart="0.00" departLane="random" departPos="random_free" departSpeed="random">
        <route edges="-gneE3.9 -gneE6 -gneE5 -gneE4 -gneE7 gneE3.9"/>
    </vehicle>
    <vehicle id="3" depart="0.01" departLane="random" departPos="random_free" departSpeed="random">
        <route edges="-gneE1.23 -gneE7 -gneE6 -gneE0"/>
    </vehicle>
    <vehicle id="4" depart="0.01" departLane="random" departPos="random_free" departSpeed="random">
        <route edges="-gneE1.23 -gneE7 -gneE6 -gneE5 -gneE4 gneE1.23"/>
    </vehicle>
    <vehicle id="5" depart="0.01" departLane="random" departPos="random_free" departSpeed="random">
        <route edges="-gneE1.23 -gneE7 -gneE6 -gneE0"/>
    </vehicle>
    <vehicle id="6" depart="0.01" departLane="random" departPos="random_free" departSpeed="random">
        <route edges="gneE0 -gneE5 -gneE4 -gneE7 -gneE6 -gneE0"/>
    </vehicle>
    <vehicle id="7" depart="0.01" departLane="random" departPos="random_free" departSpeed="random">
        <route edges="-gneE2.9 gneE5 -gneE0"/>
    </vehicle>
    <vehicle id="8" depart="0.02" departLane="random" departPos="random_free" departSpeed="random">
        <route edges="-gneE3.9 -gneE6 -gneE5 -gneE4 -gneE7 gneE3.9"/>
    </vehicle>
    <vehicle id="9" depart="0.02" departLane="random" departPos="random_free" departSpeed="random">
        <route edges="-gneE6 -gneE5 gneE2.9"/>
    </vehicle>
    <vehicle id="10" depart="0.02" departLane="random" departPos="random_free" departSpeed="random">
        <route edges="-gneE1.23 -gneE7 gneE3.9"/>
    </vehicle>
    <vehicle id="11" depart="0.02" departLane="random" departPos="random_free" departSpeed="random">
        <route edges="-gneE4 -gneE7 -gneE6 -gneE0"/>
    </vehicle>
    <vehicle id="12" depart="0.02" departLane="random" departPos="random_free" departSpeed="random">
        <route edges="-gneE3.9 -gneE6 -gneE0"/>
    </vehicle>
    <vehicle id="13" depart="0.03" departLane="random" departPos="random_free" departSpeed="random">
        <route edges="-gneE2.9 -gneE4 -gneE7 -gneE6 -gneE5 gneE2.9"/>
    </vehicle>
    <vehicle id="14" depart="0.03" departLane="random" departPos="random_free" departSpeed="random">
        <route edges="-gneE1.23 gneE4 gneE2.9"/>
    </vehicle>
    <vehicle id="15" depart="0.03" departLane="random" departPos="random_free" departSpeed="random">
        <route edges="gneE0 -gneE5 -gneE4 -gneE7 -gneE6 -gneE0"/>
    </vehicle>
    <vehicle id="16" depart="0.03" departLane="random" departPos="random_free" departSpeed="random">
        <route edges="-gneE3.9 gneE7 gneE4"/>
    </vehicle>
    <vehicle id="17" depart="0.03" departLane="random" departPos="random_free" departSpeed="random">
        <route edges="gneE0 gneE6"/>
    </vehicle>
    <vehicle id="18" depart="0.04" departLane="random" departPos="random_free" departSpeed="random">
        <route edges="-gneE5 -gneE4 gneE1.23"/>
    </vehicle>
    <vehicle id="19" depart="0.04" departLane="random" departPos="random_free" departSpeed="random">
        <route edges="gneE4 gneE5 gneE6 gneE7 gneE1.23"/>
    </vehicle>
    <vehicle id="20" depart="0.04" departLane="random" departPos="random_free" departSpeed="random">
        <route edges="-gneE1.23 -gneE7 -gneE6 -gneE5 -gneE4 gneE1.23"/>
    </vehicle>
    <vehicle id="21" depart="0.04" departLane="random" departPos="random_free" departSpeed="random">
        <route edges="-gneE1.23 -gneE7 -gneE6 -gneE5 -gneE4 gneE1.23"/>
    </vehicle>
    <vehicle id="22" depart="0.04" departLane="random" departPos="random_free" departSpeed="random">
        <route edges="gneE4 gneE5 gneE6 gneE3.9"/>
    </vehicle>
    <vehicle id="23" depart="0.05" departLane="random" departPos="random_free" departSpeed="random">
        <route edges="-gneE3.9 -gneE6 -gneE5 -gneE4 -gneE7 gneE3.9"/>
    </vehicle>
    <vehicle id="24" depart="0.05" departLane="random" departPos="random_free" departSpeed="random">
        <route edges="-gneE3.9 -gneE6 -gneE0"/>
    </vehicle>
    <vehicle id="25" depart="0.05" departLane="random" departPos="random_free" departSpeed="random">
        <route edges="-gneE1.23 -gneE7 -gneE6 -gneE5 -gneE4 gneE1.23"/>
    </vehicle>
    <vehicle id="26" depart="0.05" departLane="random" departPos="random_free" departSpeed="random">
        <route edges="-gneE6 -gneE0"/>
    </vehicle>
    <vehicle id="27" depart="0.05" departLane="random" departPos="random_free" departSpeed="random">
        <route edges="gneE0 -gneE5 -gneE4 gneE1.23"/>
    </vehicle>
    <vehicle id="28" depart="0.06" departLane="random" departPos="random_free" departSpeed="random">
        <route edges="-gneE2.9 -gneE4 -gneE7 -gneE6 -gneE5 gneE2.9"/>
    </vehicle>
    <vehicle id="29" depart="0.06" departLane="random" departPos="random_free" departSpeed="random">
        <route edges="-gneE1.23 -gneE7 -gneE6 -gneE5 -gneE4 gneE1.23"/>
    </vehicle>
    <vehicle id="30" depart="0.06" departLane="random" departPos="random_free" departSpeed="random">
        <route edges="-gneE1.23 gneE4 gneE5 gneE6 gneE7"/>
    </vehicle>
    <vehicle id="31" depart="0.06" departLane="random" departPos="random_free" departSpeed="random">
        <route edges="-gneE6 -gneE5 -gneE4 -gneE7 gneE3.9"/>
    </vehicle>
    <vehicle id="32" depart="0.06" departLane="random" departPos="random_free" departSpeed="random">
        <route edges="-gneE2.9 -gneE4 -gneE7 -gneE6 -gneE5 gneE2.9"/>
    </vehicle>
    <vehicle id="33" depart="0.07" departLane="random" departPos="random_free" departSpeed="random">
        <route edges="gneE0 -gneE5 -gneE4 gneE1.23"/>
    </vehicle>
    <vehicle id="34" depart="0.07" departLane="random" departPos="random_free" departSpeed="random">
        <route edges="-gneE3.9 -gneE6 -gneE5 gneE2.9"/>
    </vehicle>
    <vehicle id="35" depart="0.07" departLane="random" departPos="random_free" departSpeed="random">
        <route edges="gneE0 gneE6 gneE3.9"/>
    </vehicle>
    <vehicle id="36" depart="0.07" departLane="random" departPos="random_free" departSpeed="random">
        <route edges="-gneE2.9 gneE5 -gneE0"/>
    </vehicle>
    <vehicle id="37" depart="0.07" departLane="random" departPos="random_free" departSpeed="random">
        <route edges="-gneE2.9 gneE5 -gneE0"/>
    </vehicle>
    <vehicle id="38" depart="0.08" departLane="random" departPos="random_free" departSpeed="random">
        <route edges="-gneE1.23 gneE4 gneE2.9"/>
    </vehicle>
    <vehicle id="39" depart="0.08" departLane="random" departPos="random_free" departSpeed="random">
        <route edges="-gneE3.9 -gneE6 -gneE5 gneE2.9"/>
    </vehicle>
    <vehicle id="40" depart="0.08" departLane="random" departPos="random_free" departSpeed="random">
        <route edges="-gneE3.9 -gneE6 -gneE0"/>
    </vehicle>
    <vehicle id="41" depart="0.08" departLane="random" departPos="random_free" departSpeed="random">
        <route edges="-gneE1.23 -gneE7 gneE3.9"/>
    </vehicle>
    <vehicle id="42" depart="0.08" departLane="random" departPos="random_free" departSpeed="random">
        <route edges="-gneE3.9 -gneE6 -gneE5 gneE2.9"/>
    </vehicle>
    <vehicle id="43" depart="0.09" departLane="random" departPos="random_free" departSpeed="random">
        <route edges="-gneE4 -gneE7 -gneE6 -gneE5 gneE2.9"/>
    </vehicle>
    <vehicle id="44" depart="0.09" departLane="random" departPos="random_free" departSpeed="random">
        <route edges="-gneE1.23 -gneE7 -gneE6 -gneE0"/>
    </vehicle>
    <vehicle id="45" depart="0.09" departLane="random" departPos="random_free" departSpeed="random">
        <route edges="-gneE2.9 gneE5 -gneE0"/>
    </vehicle>
    <vehicle id="46" depart="0.09" departLane="random" departPos="random_free" departSpeed="random">
        <route edges="-gneE1.23 -gneE7 gneE3.9"/>
    </vehicle>
    <vehicle id="47" depart="0.09" departLane="random" departPos="random_free" departSpeed="random">
        <route edges="-gneE3.9 -gneE6 -gneE0"/>
    </vehicle>
    <vehicle id="1_0" depart="0.20" departLane="random" departPos="base" departSpeed="random">
        <route edges="-gneE2.9 gneE5 -gneE0"/>
    </vehicle>
    <vehicle id="1_1" depart="1.20" departLane="random" departPos="base" departSpeed="random">
        <route edges="-gneE2.9 -gneE4 -gneE7 gneE3.9"/>
    </vehicle>
    <vehicle id="1_2" depart="2.20" departLane="random" departPos="base" departSpeed="random">
        <route edges="-gneE1.23 -gneE7 -gneE6 -gneE0"/>
    </vehicle>
    <vehicle id="1_4" depart="4.20" departLane="random" departPos="base" departSpeed="random">
        <route edges="-gneE2.9 -gneE4 gneE1.23"/>
    </vehicle>
    <vehicle id="1_5" depart="5.20" departLane="random" departPos="base" departSpeed="random">
        <route edges="-gneE1.23 gneE4 gneE2.9"/>
    </vehicle>
    <vehicle id="1_6" depart="6.20" departLane="random" departPos="base" departSpeed="random">
        <route edges="-gneE2.9 -gneE4 -gneE7 -gneE6 -gneE5 gneE2.9"/>
    </vehicle>
    <vehicle id="1_7" depart="7.20" departLane="random" departPos="base" departSpeed="random">
        <route edges="-gneE3.9 -gneE6 -gneE5 gneE2.9"/>
    </vehicle>
    <vehicle id="1_8" depart="8.20" departLane="random" departPos="base" departSpeed="random">
        <route edges="-gneE3.9 -gneE6 -gneE5 -gneE4 -gneE7 gneE3.9"/>
    </vehicle>
    <vehicle id="1_9" depart="9.20" departLane="random" departPos="base" departSpeed="random">
        <route edges="-gneE3.9 -gneE6 -gneE5 gneE2.9"/>
    </vehicle>
    <vehicle id="1_10" depart="10.20" departLane="random" departPos="base" departSpeed="random">
        <route edges="-gneE3.9 -gneE6 -gneE5 -gneE4 -gneE7 gneE3.9"/>
    </vehicle>
    <vehicle id="1_11" depart="11.20" departLane="random" departPos="base" departSpeed="random">
        <route edges="-gneE2.9 gneE5 -gneE0"/>
    </vehicle>
    <vehicle id="1_12" depart="12.20" departLane="random" departPos="base" departSpeed="random">
        <route edges="-gneE2.9 -gneE4 -gneE7 gneE3.9"/>
    </vehicle>
    <vehicle id="1_13" depart="13.20" departLane="random" departPos="base" departSpeed="random">
        <route edges="-gneE1.23 gneE4 gneE2.9"/>
    </vehicle>
    <vehicle id="1_17" depart="17.20" departLane="random" departPos="base" departSpeed="random">
        <route edges="-gneE3.9 gneE7 gneE1.23"/>
    </vehicle>
    <vehicle id="1_18" depart="18.20" departLane="random" departPos="base" departSpeed="random">
        <route edges="-gneE2.9 -gneE4 gneE1.23"/>
    </vehicle>
    <vehicle id="1_19" depart="19.20" departLane="random" departPos="base" departSpeed="random">
        <route edges="-gneE2.9 -gneE4 -gneE7 gneE3.9"/>
    </vehicle>
    <vehicle id="1_20" depart="20.20" departLane="random" departPos="base" departSpeed="random">
        <route edges="gneE0 -gneE5 gneE2.9"/>
    </vehicle>
    <vehicle id="1_21" depart="21.20" departLane="random" departPos="base" departSpeed="random">
        <route edges="-gneE3.9 -gneE6 -gneE5 gneE2.9"/>
    </vehicle>
    <vehicle id="1_22" depart="22.20" departLane="random" departPos="base" departSpeed="random">
        <route edges="-gneE1.23 gneE4 gneE2.9"/>
    </vehicle>
    <vehicle id="1_23" depart="23.20" departLane="random" departPos="base" departSpeed="random">
        <route edges="gneE0 -gneE5 -gneE4 gneE1.23"/>
    </vehicle>
    <vehicle id="1_25" depart="25.20" departLane="random" departPos="base" departSpeed="random">
        <route edges="-gneE3.9 -gneE6 -gneE0"/>
    </vehicle>
    <vehicle id="1_28" depart="28.20" departLane="random" departPos="base" departSpeed="random">
        <route edges="-gneE3.9 -gneE6 -gneE5 -gneE4 -gneE7 gneE3.9"/>
    </vehicle>
    <vehicle id="1_29" depart="29.20" departLane="random" departPos="base" departSpeed="random">
        <route edges="gneE0 gneE6 gneE3.9"/>
    </vehicle>
    <vehicle id="1_30" depart="30.20" departLane="random" departPos="base" departSpeed="random">
        <route edges="-gneE1.23 -gneE7 -gneE6 -gneE5 -gneE4 gneE1.23"/>
    </vehicle>
    <vehicle id="1_31" depart="31.20" departLane="random" departPos="base" departSpeed="random">
        <route edges="-gneE3.9 -gneE6 -gneE0"/>
    </vehicle>
    <vehicle id="1_33" depart="33.20" departLane="random" departPos="base" departSpeed="random">
        <route edges="-gneE3.9 -gneE6 -gneE5 gneE2.9"/>
    </vehicle>
    <vehicle id="1_34" depart="34.20" departLane="random" departPos="base" departSpeed="random">
        <route edges="-gneE2.9 -gneE4 gneE1.23"/>
    </vehicle>
    <vehicle id="1_35" depart="35.20" departLane="random" departPos="base" departSpeed="random">
        <route edges="-gneE1.23 -gneE7 -gneE6 -gneE0"/>
    </vehicle>
    <vehicle id="1_36" depart="36.20" departLane="random" departPos="base" departSpeed="random">
        <route edges="gneE0 gneE6 gneE3.9"/>
    </vehicle>
    <vehicle id="1_39" depart="39.20" departLane="random" departPos="base" departSpeed="random">
        <route edges="-gneE3.9 -gneE6 -gneE5 -gneE4 -gneE7 gneE3.9"/>
    </vehicle>
    <vehicle id="1_40" depart="40.20" departLane="random" departPos="base" departSpeed="random">
        <route edges="gneE0 -gneE5 -gneE4 gneE1.23"/>
    </vehicle>
    <vehicle id="1_43" depart="43.20" departLane="random" departPos="base" departSpeed="random">
        <route edges="-gneE1.23 -gneE7 gneE3.9"/>
    </vehicle>
    <vehicle id="1_46" depart="46.20" departLane="random" departPos="base" departSpeed="random">
        <route edges="-gneE2.9 -gneE4 gneE1.23"/>
    </vehicle>
    <vehicle id="1_47" depart="47.20" departLane="random" departPos="base" departSpeed="random">
        <route edges="gneE0 -gneE5 gneE2.9"/>
    </vehicle>
    <vehicle id="1_48" depart="48.20" departLane="random" departPos="base" departSpeed="random">
        <route edges="gneE0 -gneE5 -gneE4 gneE1.23"/>
    </vehicle>
    <vehicle id="1_53" depart="53.20" departLane="random" departPos="base" departSpeed="random">
        <route edges="-gneE2.9 gneE5 -gneE0"/>
    </vehicle>
    <vehicle id="1_54" depart="54.20" departLane="random" departPos="base" departSpeed="random">
        <route edges="gneE0 gneE6 gneE3.9"/>
    </vehicle>
    <vehicle id="1_55" depart="55.20" departLane="random" departPos="base" departSpeed="random">
        <route edges="-gneE3.9 gneE7 gneE1.23"/>
    </vehicle>
    <vehicle id="1_57" depart="57.20" departLane="random" departPos="base" departSpeed="random">
        <route edges="-gneE1.23 -gneE7 -gneE6 -gneE0"/>
    </vehicle>
    <vehicle id="1_58" depart="58.20" departLane="random" departPos="base" departSpeed="random">
        <route edges="-gneE1.23 -gneE7 -gneE6 -gneE5 -gneE4 gneE1.23"/>
    </vehicle>
    <vehicle id="1_59" depart="59.20" departLane="random" departPos="base" departSpeed="random">
        <route edges="gneE0 -gneE5 gneE2.9"/>
    </vehicle>
    <vehicle id="1_62" depart="62.20" departLane="random" departPos="base" departSpeed="random">
        <route edges="-gneE1.23 -gneE7 gneE3.9"/>
    </vehicle>
    <vehicle id="1_63" depart="63.20" departLane="random" departPos="base" departSpeed="random">
        <route edges="-gneE1.23 -gneE7 -gneE6 -gneE5 -gneE4 gneE1.23"/>
    </vehicle>
    <vehicle id="1_65" depart="65.20" departLane="random" departPos="base" departSpeed="random">
        <route edges="-gneE3.9 -gneE6 -gneE0"/>
    </vehicle>
    <vehicle id="1_66" depart="66.20" departLane="random" departPos="base" departSpeed="random">
        <route edges="-gneE1.23 -gneE7 -gneE6 -gneE5 -gneE4 gneE1.23"/>
    </vehicle>
    <vehicle id="1_67" depart="67.20" departLane="random" departPos="base" departSpeed="random">
        <route edges="-gneE3.9 -gneE6 -gneE5 -gneE4 -gneE7 gneE3.9"/>
    </vehicle>
    <vehicle id="1_72" depart="72.20" departLane="random" departPos="base" departSpeed="random">
        <route edges="-gneE1.23 -gneE7 gneE3.9"/>
    </vehicle>
    <vehicle id="1_73" depart="73.20" departLane="random" departPos="base" departSpeed="random">
        <route edges="-gneE2.9 gneE5 -gneE0"/>
    </vehicle>
    <vehicle id="1_75" depart="75.20" departLane="random" departPos="base" departSpeed="random">
        <route edges="-gneE2.9 -gneE4 -gneE7 gneE3.9"/>
    </vehicle>
    <vehicle id="1_78" depart="78.20" departLane="random" departPos="base" departSpeed="random">
        <route edges="-gneE1.23 -gneE7 -gneE6 -gneE0"/>
    </vehicle>
    <vehicle id="1_80" depart="80.20" departLane="random" departPos="base" departSpeed="random">
        <route edges="-gneE1.23 gneE4 gneE2.9"/>
    </vehicle>
    <vehicle id="1_81" depart="81.20" departLane="random" departPos="base" departSpeed="random">
        <route edges="-gneE3.9 -gneE6 -gneE0"/>
    </vehicle>
    <vehicle id="1_82" depart="82.20" departLane="random" departPos="base" departSpeed="random">
        <route edges="-gneE3.9 -gneE6 -gneE0"/>
    </vehicle>
    <vehicle id="1_83" depart="83.20" departLane="random" departPos="base" departSpeed="random">
        <route edges="gneE0 gneE6 gneE3.9"/>
    </vehicle>
    <vehicle id="1_84" depart="84.20" departLane="random" departPos="base" departSpeed="random">
        <route edges="-gneE2.9 gneE5 -gneE0"/>
    </vehicle>
    <vehicle id="1_85" depart="85.20" departLane="random" departPos="base" departSpeed="random">
        <route edges="-gneE1.23 gneE4 gneE2.9"/>
    </vehicle>
    <vehicle id="1_86" depart="86.20" departLane="random" departPos="base" departSpeed="random">
        <route edges="-gneE2.9 -gneE4 gneE1.23"/>
    </vehicle>
    <vehicle id="1_87" depart="87.20" departLane="random" departPos="base" departSpeed="random">
        <route edges="-gneE3.9 gneE7 gneE1.23"/>
    </vehicle>
    <vehicle id="1_89" depart="89.20" departLane="random" departPos="base" departSpeed="random">
        <route edges="gneE0 -gneE5 -gneE4 -gneE7 -gneE6 -gneE0"/>
    </vehicle>
    <vehicle id="1_90" depart="90.20" departLane="random" departPos="base" departSpeed="random">
        <route edges="-gneE1.23 -gneE7 -gneE6 -gneE0"/>
    </vehicle>
    <vehicle id="1_91" depart="91.20" departLane="random" departPos="base" departSpeed="random">
        <route edges="gneE0 -gneE5 -gneE4 gneE1.23"/>
    </vehicle>
    <vehicle id="1_93" depart="93.20" departLane="random" departPos="base" departSpeed="random">
        <route edges="-gneE1.23 -gneE7 gneE3.9"/>
    </vehicle>
    <vehicle id="1_94" depart="94.20" departLane="random" departPos="base" departSpeed="random">
        <route edges="-gneE2.9 -gneE4 -gneE7 gneE3.9"/>
    </vehicle>
    <vehicle id="1_95" depart="95.20" departLane="random" departPos="base" departSpeed="random">
        <route edges="gneE0 -gneE5 -gneE4 gneE1.23"/>
    </vehicle>
    <vehicle id="1_96" depart="96.20" departLane="random" departPos="base" departSpeed="random">
        <route edges="-gneE3.9 -gneE6 -gneE5 gneE2.9"/>
    </vehicle>
    <vehicle id="1_97" depart="97.20" departLane="random" departPos="base" departSpeed="random">
        <route edges="-gneE2.9 -gneE4 gneE1.23"/>
    </vehicle>
    <vehicle id="1_98" depart="98.20" departLane="random" departPos="base" departSpeed="random">
        <route edges="gneE0 -gneE5 gneE2.9"/>
    </vehicle>
    <vehicle id="1_99" depart="99.20" departLane="random" departPos="base" departSpeed="random">
        <route edges="-gneE2.9 gneE5 -gneE0"/>
    </vehicle>
    <vehicle id="1_100" depart="100.20" departLane="random" departPos="base" departSpeed="random">
        <route edges="-gneE2.9 -gneE4 -gneE7 -gneE6 -gneE5 gneE2.9"/>
    </vehicle>
    <vehicle id="1_101" depart="101.20" departLane="random" departPos="base" departSpeed="random">
        <route edges="gneE0 -gneE5 -gneE4 gneE1.23"/>
    </vehicle>
    <vehicle id="1_102" depart="102.20" departLane="random" departPos="base" departSpeed="random">
        <route edges="-gneE1.23 -gneE7 gneE3.9"/>
    </vehicle>
    <vehicle id="1_104" depart="104.20" departLane="random" departPos="base" departSpeed="random">
        <route edges="gneE0 -gneE5 gneE2.9"/>
    </vehicle>
    <vehicle id="1_105" depart="105.20" departLane="random" departPos="base" departSpeed="random">
        <route edges="-gneE1.23 -gneE7 -gneE6 -gneE0"/>
    </vehicle>
    <vehicle id="1_109" depart="109.20" departLane="random" departPos="base" departSpeed="random">
        <route edges="-gneE3.9 -gneE6 -gneE0"/>
    </vehicle>
    <vehicle id="1_111" depart="111.20" departLane="random" departPos="base" departSpeed="random">
        <route edges="-gneE2.9 -gneE4 gneE1.23"/>
    </vehicle>
    <vehicle id="1_112" depart="112.20" departLane="random" departPos="base" departSpeed="random">
        <route edges="-gneE3.9 gneE7 gneE1.23"/>
    </vehicle>
    <vehicle id="1_113" depart="113.20" departLane="random" departPos="base" departSpeed="random">
        <route edges="-gneE3.9 gneE7 gneE1.23"/>
    </vehicle>
    <vehicle id="1_114" depart="114.20" departLane="random" departPos="base" departSpeed="random">
        <route edges="-gneE1.23 gneE4 gneE2.9"/>
    </vehicle>
    <vehicle id="1_115" depart="115.20" departLane="random" departPos="base" departSpeed="random">
        <route edges="-gneE2.9 -gneE4 -gneE7 gneE3.9"/>
    </vehicle>
    <vehicle id="1_116" depart="116.20" departLane="random" departPos="base" departSpeed="random">
        <route edges="gneE0 gneE6 gneE3.9"/>
    </vehicle>
    <vehicle id="1_117" depart="117.20" departLane="random" departPos="base" departSpeed="random">
        <route edges="-gneE3.9 -gneE6 -gneE5 gneE2.9"/>
    </vehicle>
    <vehicle id="1_118" depart="118.20" departLane="random" departPos="base" departSpeed="random">
        <route edges="-gneE2.9 gneE5 -gneE0"/>
    </vehicle>
    <vehicle id="1_121" depart="121.20" departLane="random" departPos="base" departSpeed="random">
        <route edges="-gneE2.9 -gneE4 -gneE7 gneE3.9"/>
    </vehicle>
    <vehicle id="1_122" depart="122.20" departLane="random" departPos="base" departSpeed="random">
        <route edges="-gneE1.23 -gneE7 gneE3.9"/>
    </vehicle>
    <vehicle id="1_125" depart="125.20" departLane="random" departPos="base" departSpeed="random">
        <route edges="-gneE3.9 -gneE6 -gneE5 gneE2.9"/>
    </vehicle>
    <vehicle id="1_126" depart="126.20" departLane="random" departPos="base" departSpeed="random">
        <route edges="-gneE3.9 -gneE6 -gneE0"/>
    </vehicle>
    <vehicle id="1_128" depart="128.20" departLane="random" departPos="base" departSpeed="random">
        <route edges="-gneE3.9 -gneE6 -gneE5 gneE2.9"/>
    </vehicle>
    <vehicle id="1_129" depart="129.20" departLane="random" departPos="base" departSpeed="random">
        <route edges="gneE0 -gneE5 gneE2.9"/>
    </vehicle>
    <vehicle id="1_130" depart="130.20" departLane="random" departPos="base" departSpeed="random">
        <route edges="gneE0 -gneE5 -gneE4 -gneE7 -gneE6 -gneE0"/>
    </vehicle>
    <vehicle id="1_132" depart="132.20" departLane="random" departPos="base" departSpeed="random">
        <route edges="-gneE2.9 gneE5 -gneE0"/>
    </vehicle>
    <vehicle id="1_133" depart="133.20" departLane="random" departPos="base" departSpeed="random">
        <route edges="gneE0 -gneE5 -gneE4 -gneE7 -gneE6 -gneE0"/>
    </vehicle>
    <vehicle id="1_134" depart="134.20" departLane="random" departPos="base" departSpeed="random">
        <route edges="-gneE2.9 -gneE4 -gneE7 gneE3.9"/>
    </vehicle>
    <vehicle id="1_136" depart="136.20" departLane="random" departPos="base" departSpeed="random">
        <route edges="gneE0 -gneE5 gneE2.9"/>
    </vehicle>
    <vehicle id="1_137" depart="137.20" departLane="random" departPos="base" departSpeed="random">
        <route edges="-gneE1.23 -gneE7 gneE3.9"/>
    </vehicle>
    <vehicle id="1_139" depart="139.20" departLane="random" departPos="base" departSpeed="random">
        <route edges="gneE0 -gneE5 -gneE4 gneE1.23"/>
    </vehicle>
    <vehicle id="1_141" depart="141.20" departLane="random" departPos="base" departSpeed="random">
        <route edges="gneE0 -gneE5 -gneE4 -gneE7 -gneE6 -gneE0"/>
    </vehicle>
    <vehicle id="1_142" depart="142.20" departLane="random" departPos="base" departSpeed="random">
        <route edges="-gneE3.9 gneE7 gneE1.23"/>
    </vehicle>
    <vehicle id="1_143" depart="143.20" departLane="random" departPos="base" departSpeed="random">
        <route edges="-gneE3.9 gneE7 gneE1.23"/>
    </vehicle>
    <vehicle id="1_144" depart="144.20" departLane="random" departPos="base" departSpeed="random">
        <route edges="-gneE1.23 gneE4 gneE2.9"/>
    </vehicle>
    <vehicle id="1_145" depart="145.20" departLane="random" departPos="base" departSpeed="random">
        <route edges="-gneE3.9 gneE7 gneE1.23"/>
    </vehicle>
    <vehicle id="1_147" depart="147.20" departLane="random" departPos="base" departSpeed="random">
        <route edges="gneE0 -gneE5 -gneE4 gneE1.23"/>
    </vehicle>
    <vehicle id="1_148" depart="148.20" departLane="random" departPos="base" departSpeed="random">
        <route edges="-gneE3.9 -gneE6 -gneE0"/>
    </vehicle>
    <vehicle id="1_149" depart="149.20" departLane="random" departPos="base" departSpeed="random">
        <route edges="gneE0 -gneE5 -gneE4 gneE1.23"/>
    </vehicle>
    <vehicle id="1_150" depart="150.20" departLane="random" departPos="base" departSpeed="random">
        <route edges="-gneE3.9 -gneE6 -gneE5 -gneE4 -gneE7 gneE3.9"/>
    </vehicle>
    <vehicle id="1_151" depart="151.20" departLane="random" departPos="base" departSpeed="random">
        <route edges="gneE0 -gneE5 -gneE4 gneE1.23"/>
    </vehicle>
    <vehicle id="1_153" depart="153.20" departLane="random" departPos="base" departSpeed="random">
        <route edges="-gneE1.23 -gneE7 gneE3.9"/>
    </vehicle>
    <vehicle id="1_156" depart="156.20" departLane="random" departPos="base" departSpeed="random">
        <route edges="-gneE2.9 -gneE4 -gneE7 -gneE6 -gneE5 gneE2.9"/>
    </vehicle>
    <vehicle id="1_157" depart="157.20" departLane="random" departPos="base" departSpeed="random">
        <route edges="-gneE2.9 gneE5 -gneE0"/>
    </vehicle>
    <vehicle id="1_158" depart="158.20" departLane="random" departPos="base" departSpeed="random">
        <route edges="-gneE3.9 -gneE6 -gneE5 -gneE4 -gneE7 gneE3.9"/>
    </vehicle>
    <vehicle id="1_159" depart="159.20" departLane="random" departPos="base" departSpeed="random">
        <route edges="-gneE2.9 -gneE4 -gneE7 gneE3.9"/>
    </vehicle>
    <vehicle id="1_160" depart="160.20" departLane="random" departPos="base" departSpeed="random">
        <route edges="-gneE2.9 gneE5 -gneE0"/>
    </vehicle>
    <vehicle id="1_161" depart="161.20" departLane="random" departPos="base" departSpeed="random">
        <route edges="-gneE2.9 -gneE4 -gneE7 -gneE6 -gneE5 gneE2.9"/>
    </vehicle>
    <vehicle id="1_162" depart="162.20" departLane="random" departPos="base" departSpeed="random">
        <route edges="-gneE3.9 -gneE6 -gneE5 gneE2.9"/>
    </vehicle>
    <vehicle id="1_165" depart="165.20" departLane="random" departPos="base" departSpeed="random">
        <route edges="gneE0 gneE6 gneE3.9"/>
    </vehicle>
    <vehicle id="1_166" depart="166.20" departLane="random" departPos="base" departSpeed="random">
        <route edges="-gneE3.9 -gneE6 -gneE5 -gneE4 -gneE7 gneE3.9"/>
    </vehicle>
    <vehicle id="1_167" depart="167.20" departLane="random" departPos="base" departSpeed="random">
        <route edges="-gneE1.23 -gneE7 -gneE6 -gneE5 -gneE4 gneE1.23"/>
    </vehicle>
    <vehicle id="1_168" depart="168.20" departLane="random" departPos="base" departSpeed="random">
        <route edges="-gneE2.9 -gneE4 gneE1.23"/>
    </vehicle>
    <vehicle id="1_171" depart="171.20" departLane="random" departPos="base" departSpeed="random">
        <route edges="-gneE2.9 -gneE4 gneE1.23"/>
    </vehicle>
    <vehicle id="1_172" depart="172.20" departLane="random" departPos="base" departSpeed="random">
        <route edges="-gneE1.23 gneE4 gneE2.9"/>
    </vehicle>
    <vehicle id="1_173" depart="173.20" departLane="random" departPos="base" departSpeed="random">
        <route edges="gneE0 -gneE5 -gneE4 gneE1.23"/>
    </vehicle>
    <vehicle id="1_174" depart="174.20" departLane="random" departPos="base" departSpeed="random">
        <route edges="gneE0 -gneE5 gneE2.9"/>
    </vehicle>
    <vehicle id="1_175" depart="175.20" departLane="random" departPos="base" departSpeed="random">
        <route edges="-gneE1.23 -gneE7 -gneE6 -gneE0"/>
    </vehicle>
    <vehicle id="1_179" depart="179.20" departLane="random" departPos="base" departSpeed="random">
        <route edges="-gneE1.23 -gneE7 gneE3.9"/>
    </vehicle>
    <vehicle id="1_181" depart="181.20" departLane="random" departPos="base" departSpeed="random">
        <route edges="-gneE3.9 -gneE6 -gneE5 -gneE4 -gneE7 gneE3.9"/>
    </vehicle>