<?xml version="1.0" encoding="UTF-8"?>

<!-- generated on Mon Oct 22 02:41:44 2018 by SUMO duarouter Version UNKNOWN
<configuration xmlns:xsi="http://www.w3.org/2001/XMLSchema-instance" xsi:noNamespaceSchemaLocation="http://sumo.dlr.de/xsd/duarouterConfiguration.xsd">

    <input>
        <net-file value="roundabout.net.xml"/>
        <route-files value="trips.trips.xml"/>
    </input>

    <output>
        <output-file value="temp0.rou.xml"/>
        <alternatives-output value="temp0.rou.alt.xml"/>
    </output>

    <processing>
        <ignore-errors value="true"/>
    </processing>

    <time>
        <begin value="0"/>
        <end value="0.1"/>
    </time>

    <report>
        <no-warnings value="true"/>
        <no-step-log value="true"/>
    </report>

</configuration>
-->

<routes xmlns:xsi="http://www.w3.org/2001/XMLSchema-instance" xsi:noNamespaceSchemaLocation="http://sumo.dlr.de/xsd/routes_file.xsd">
    <vType id="EgoCar" color="0,1,0"/>
    <vehicle id="ego" depart="0.00" departLane="random" departPos="random" departSpeed="random" type="EgoCar">
        <route edges="-gneE1.23 -gneE7 -gneE6 -gneE5 -gneE4"/>
    </vehicle>
    <vehicle id="1" depart="0.00" departLane="random" departPos="random_free" departSpeed="random">
        <route edges="gneE0 -gneE5 -gneE4 -gneE7 -gneE6 -gneE0"/>
    </vehicle>
    <vehicle id="2" depart="0.01" departLane="random" departPos="random_free" departSpeed="random">
        <route edges="gneE6 gneE7 gneE1.23"/>
    </vehicle>
    <vehicle id="3" depart="0.01" departLane="random" departPos="random_free" departSpeed="random">
        <route edges="-gneE3.9 gneE7 gneE4"/>
    </vehicle>
    <vehicle id="4" depart="0.02" departLane="random" departPos="random_free" departSpeed="random">
        <route edges="-gneE2.9 gneE5 -gneE0"/>
    </vehicle>
    <vehicle id="5" depart="0.02" departLane="random" departPos="random_free" departSpeed="random">
        <route edges="-gneE1.23 -gneE7 -gneE6 -gneE5"/>
    </vehicle>
    <vehicle id="6" depart="0.02" departLane="random" departPos="random_free" departSpeed="random">
        <route edges="-gneE1.23 -gneE7 -gneE6 -gneE5 -gneE4 gneE1.23"/>
    </vehicle>
    <vehicle id="7" depart="0.03" departLane="random" departPos="random_free" departSpeed="random">
        <route edges="gneE0 -gneE5 -gneE4 -gneE7 -gneE6 -gneE0"/>
    </vehicle>
    <vehicle id="8" depart="0.03" departLane="random" departPos="random_free" departSpeed="random">
        <route edges="-gneE2.9 gneE5 -gneE0"/>
    </vehicle>
    <vehicle id="9" depart="0.04" departLane="random" departPos="random_free" departSpeed="random">
        <route edges="-gneE3.9 -gneE6 -gneE5 -gneE4 -gneE7 gneE3.9"/>
    </vehicle>
    <vehicle id="10" depart="0.04" departLane="random" departPos="random_free" departSpeed="random">
        <route edges="-gneE3.9 gneE7 gneE1.23"/>
    </vehicle>
    <vehicle id="11" depart="0.04" departLane="random" departPos="random_free" departSpeed="random">
        <route edges="-gneE5 gneE2.9"/>
    </vehicle>
    <vehicle id="12" depart="0.05" departLane="random" departPos="random_free" departSpeed="random">
        <route edges="gneE0 -gneE5 -gneE4 -gneE7 -gneE6 -gneE0"/>
    </vehicle>
    <vehicle id="13" depart="0.05" departLane="random" departPos="random_free" departSpeed="random">
        <route edges="-gneE7 gneE3.9"/>
    </vehicle>
    <vehicle id="14" depart="0.06" departLane="random" departPos="random_free" departSpeed="random">
        <route edges="-gneE2.9 -gneE4 -gneE7 gneE3.9"/>
    </vehicle>
    <vehicle id="15" depart="0.06" departLane="random" departPos="random_free" departSpeed="random">
        <route edges="-gneE3.9 -gneE6 -gneE5 gneE2.9"/>
    </vehicle>
    <vehicle id="16" depart="0.06" departLane="random" departPos="random_free" departSpeed="random">
        <route edges="-gneE1.23 -gneE7 -gneE6"/>
    </vehicle>
    <vehicle id="17" depart="0.07" departLane="random" departPos="random_free" departSpeed="random">
        <route edges="-gneE2.9 -gneE4 -gneE7 gneE3.9"/>
    </vehicle>
    <vehicle id="18" depart="0.07" departLane="random" departPos="random_free" departSpeed="random">
        <route edges="-gneE3.9 -gneE6 -gneE5 -gneE4 -gneE7 gneE3.9"/>
    </vehicle>
    <vehicle id="19" depart="0.08" departLane="random" departPos="random_free" departSpeed="random">
        <route edges="-gneE3.9 -gneE6 -gneE0"/>
    </vehicle>
    <vehicle id="20" depart="0.08" departLane="random" departPos="random_free" departSpeed="random">
        <route edges="gneE0 -gneE5 gneE2.9"/>
    </vehicle>
    <vehicle id="21" depart="0.08" departLane="random" departPos="random_free" departSpeed="random">
        <route edges="-gneE3.9 gneE7"/>
    </vehicle>
    <vehicle id="22" depart="0.09" departLane="random" departPos="random_free" departSpeed="random">
        <route edges="-gneE1.23 gneE4 gneE5 gneE6"/>
    </vehicle>
    <vehicle id="23" depart="0.09" departLane="random" departPos="random_free" departSpeed="random">
        <route edges="gneE0 -gneE5 -gneE4 -gneE7 -gneE6 -gneE0"/>
    </vehicle>
    <vehicle id="1_0" depart="0.20" departLane="random" departPos="base" departSpeed="random">
        <route edges="-gneE3.9 gneE7 gneE1.23"/>
    </vehicle>
    <vehicle id="1_1" depart="1.60" departLane="random" departPos="base" departSpeed="random">
        <route edges="-gneE2.9 gneE5 -gneE0"/>
    </vehicle>
    <vehicle id="1_2" depart="3.00" departLane="random" departPos="base" departSpeed="random">
        <route edges="-gneE1.23 -gneE7 gneE3.9"/>
    </vehicle>
    <vehicle id="1_3" depart="4.40" departLane="random" departPos="base" departSpeed="random">
        <route edges="-gneE2.9 -gneE4 gneE1.23"/>
    </vehicle>
    <vehicle id="1_4" depart="5.80" departLane="random" departPos="base" departSpeed="random">
        <route edges="-gneE1.23 -gneE7 gneE3.9"/>
    </vehicle>
    <vehicle id="1_6" depart="8.60" departLane="random" departPos="base" departSpeed="random">
        <route edges="-gneE1.23 -gneE7 gneE3.9"/>
    </vehicle>
    <vehicle id="1_7" depart="10.00" departLane="random" departPos="base" departSpeed="random">
        <route edges="-gneE1.23 -gneE7 -gneE6 -gneE0"/>
    </vehicle>
    <vehicle id="1_9" depart="12.80" departLane="random" departPos="base" departSpeed="random">
        <route edges="-gneE3.9 -gneE6 -gneE5 gneE2.9"/>
    </vehicle>
    <vehicle id="1_10" depart="14.20" departLane="random" departPos="base" departSpeed="random">
        <route edges="gneE0 -gneE5 gneE2.9"/>
    </vehicle>
    <vehicle id="1_12" depart="17.00" departLane="random" departPos="base" departSpeed="random">
        <route edges="-gneE2.9 gneE5 -gneE0"/>
    </vehicle>
    <vehicle id="1_13" depart="18.40" departLane="random" departPos="base" departSpeed="random">
        <route edges="-gneE2.9 gneE5 -gneE0"/>
    </vehicle>
    <vehicle id="1_15" depart="21.20" departLane="random" departPos="base" departSpeed="random">
        <route edges="-gneE2.9 -gneE4 -gneE7 gneE3.9"/>
    </vehicle>
    <vehicle id="1_17" depart="24.00" departLane="random" departPos="base" departSpeed="random">
        <route edges="-gneE3.9 -gneE6 -gneE0"/>
    </vehicle>
    <vehicle id="1_18" depart="25.40" departLane="random" departPos="base" departSpeed="random">
        <route edges="-gneE2.9 -gneE4 -gneE7 -gneE6 -gneE5 gneE2.9"/>
    </vehicle>
    <vehicle id="1_19" depart="26.80" departLane="random" departPos="base" departSpeed="random">
        <route edges="gneE0 -gneE5 -gneE4 -gneE7 -gneE6 -gneE0"/>
    </vehicle>
    <vehicle id="1_22" depart="31.00" departLane="random" departPos="base" departSpeed="random">
        <route edges="gneE0 -gneE5 gneE2.9"/>
    </vehicle>
    <vehicle id="1_24" depart="33.80" departLane="random" departPos="base" departSpeed="random">
        <route edges="gneE0 gneE6 gneE3.9"/>
    </vehicle>
    <vehicle id="1_25" depart="35.20" departLane="random" departPos="base" departSpeed="random">
        <route edges="-gneE1.23 -gneE7 gneE3.9"/>
    </vehicle>
    <vehicle id="1_26" depart="36.60" departLane="random" departPos="base" departSpeed="random">
        <route edges="-gneE2.9 -gneE4 gneE1.23"/>
    </vehicle>
    <vehicle id="1_27" depart="38.00" departLane="random" departPos="base" departSpeed="random">
        <route edges="gneE0 -gneE5 -gneE4 -gneE7 -gneE6 -gneE0"/>
    </vehicle>
    <vehicle id="1_29" depart="40.80" departLane="random" departPos="base" departSpeed="random">
        <route edges="gneE0 -gneE5 -gneE4 gneE1.23"/>
    </vehicle>
    <vehicle id="1_30" depart="42.20" departLane="random" departPos="base" departSpeed="random">
        <route edges="gneE0 -gneE5 -gneE4 -gneE7 -gneE6 -gneE0"/>
    </vehicle>
    <vehicle id="1_32" depart="45.00" departLane="random" departPos="base" departSpeed="random">
        <route edges="-gneE2.9 -gneE4 -gneE7 gneE3.9"/>
    </vehicle>
    <vehicle id="1_33" depart="46.40" departLane="random" departPos="base" departSpeed="random">
        <route edges="gneE0 gneE6 gneE3.9"/>
    </vehicle>
    <vehicle id="1_34" depart="47.80" departLane="random" departPos="base" departSpeed="random">
        <route edges="-gneE3.9 -gneE6 -gneE5 -gneE4 -gneE7 gneE3.9"/>
    </vehicle>
    <vehicle id="1_35" depart="49.20" departLane="random" departPos="base" departSpeed="random">
        <route edges="-gneE1.23 -gneE7 -gneE6 -gneE5 -gneE4 gneE1.23"/>
    </vehicle>
    <vehicle id="1_36" depart="50.60" departLane="random" departPos="base" departSpeed="random">
        <route edges="-gneE1.23 -gneE7 -gneE6 -gneE5 -gneE4 gneE1.23"/>
    </vehicle>
    <vehicle id="1_37" depart="52.00" departLane="random" departPos="base" departSpeed="random">
        <route edges="-gneE3.9 -gneE6 -gneE5 -gneE4 -gneE7 gneE3.9"/>
    </vehicle>
    <vehicle id="1_41" depart="57.60" departLane="random" departPos="base" departSpeed="random">
        <route edges="gneE0 -gneE5 -gneE4 gneE1.23"/>
    </vehicle>
    <vehicle id="1_42" depart="59.00" departLane="random" departPos="base" departSpeed="random">
        <route edges="gneE0 -gneE5 gneE2.9"/>
    </vehicle>
    <vehicle id="1_45" depart="63.20" departLane="random" departPos="base" departSpeed="random">
        <route edges="gneE0 -gneE5 -gneE4 gneE1.23"/>
    </vehicle>
    <vehicle id="1_46" depart="64.60" departLane="random" departPos="base" departSpeed="random">
        <route edges="-gneE3.9 -gneE6 -gneE5 -gneE4 -gneE7 gneE3.9"/>
    </vehicle>
    <vehicle id="1_48" depart="67.40" departLane="random" departPos="base" departSpeed="random">
        <route edges="-gneE2.9 -gneE4 -gneE7 gneE3.9"/>
    </vehicle>
    <vehicle id="1_49" depart="68.80" departLane="random" departPos="base" departSpeed="random">
        <route edges="-gneE3.9 gneE7 gneE1.23"/>
    </vehicle>
    <vehicle id="1_51" depart="71.60" departLane="random" departPos="base" departSpeed="random">
        <route edges="-gneE1.23 -gneE7 gneE3.9"/>
    </vehicle>
    <vehicle id="1_53" depart="74.40" departLane="random" departPos="base" departSpeed="random">
        <route edges="-gneE1.23 -gneE7 -gneE6 -gneE5 -gneE4 gneE1.23"/>
    </vehicle>
    <vehicle id="1_54" depart="75.80" departLane="random" departPos="base" departSpeed="random">
        <route edges="-gneE2.9 gneE5 -gneE0"/>
    </vehicle>
    <vehicle id="1_55" depart="77.20" departLane="random" departPos="base" departSpeed="random">
        <route edges="-gneE2.9 gneE5 -gneE0"/>
    </vehicle>
    <vehicle id="1_56" depart="78.60" departLane="random" departPos="base" departSpeed="random">
        <route edges="-gneE3.9 -gneE6 -gneE5 -gneE4 -gneE7 gneE3.9"/>
    </vehicle>
    <vehicle id="1_57" depart="80.00" departLane="random" departPos="base" departSpeed="random">
        <route edges="-gneE3.9 -gneE6 -gneE5 -gneE4 -gneE7 gneE3.9"/>
    </vehicle>
    <vehicle id="1_58" depart="81.40" departLane="random" departPos="base" departSpeed="random">
        <route edges="gneE0 gneE6 gneE3.9"/>
    </vehicle>
    <vehicle id="1_59" depart="82.80" departLane="random" departPos="base" departSpeed="random">
        <route edges="-gneE2.9 -gneE4 -gneE7 -gneE6 -gneE5 gneE2.9"/>
    </vehicle>
    <vehicle id="1_60" depart="84.20" departLane="random" departPos="base" departSpeed="random">
        <route edges="-gneE2.9 -gneE4 -gneE7 gneE3.9"/>
    </vehicle>
    <vehicle id="1_61" depart="85.60" departLane="random" departPos="base" departSpeed="random">
        <route edges="-gneE3.9 -gneE6 -gneE5 -gneE4 -gneE7 gneE3.9"/>
    </vehicle>
    <vehicle id="1_63" depart="88.40" departLane="random" departPos="base" departSpeed="random">
        <route edges="-gneE3.9 -gneE6 -gneE0"/>
    </vehicle>
    <vehicle id="1_64" depart="89.80" departLane="random" departPos="base" departSpeed="random">
        <route edges="-gneE3.9 gneE7 gneE1.23"/>
    </vehicle>
    <vehicle id="1_65" depart="91.20" departLane="random" departPos="base" departSpeed="random">
        <route edges="-gneE1.23 -gneE7 gneE3.9"/>
    </vehicle>
    <vehicle id="1_66" depart="92.60" departLane="random" departPos="base" departSpeed="random">
        <route edges="-gneE3.9 -gneE6 -gneE5 -gneE4 -gneE7 gneE3.9"/>
    </vehicle>
    <vehicle id="1_67" depart="94.00" departLane="random" departPos="base" departSpeed="random">
        <route edges="-gneE3.9 gneE7 gneE1.23"/>
    </vehicle>
    <vehicle id="1_69" depart="96.80" departLane="random" departPos="base" departSpeed="random">
        <route edges="-gneE2.9 -gneE4 -gneE7 -gneE6 -gneE5 gneE2.9"/>
    </vehicle>
    <vehicle id="1_71" depart="99.60" departLane="random" departPos="base" departSpeed="random">
        <route edges="-gneE1.23 -gneE7 -gneE6 -gneE5 -gneE4 gneE1.23"/>
    </vehicle>
    <vehicle id="1_72" depart="101.00" departLane="random" departPos="base" departSpeed="random">
        <route edges="gneE0 -gneE5 -gneE4 -gneE7 -gneE6 -gneE0"/>
    </vehicle>
    <vehicle id="1_75" depart="105.20" departLane="random" departPos="base" departSpeed="random">
        <route edges="-gneE1.23 -gneE7 gneE3.9"/>
    </vehicle>
    <vehicle id="1_76" depart="106.60" departLane="random" departPos="base" departSpeed="random">
        <route edges="-gneE2.9 -gneE4 -gneE7 gneE3.9"/>
    </vehicle>
    <vehicle id="1_77" depart="108.00" departLane="random" departPos="base" departSpeed="random">
        <route edges="-gneE2.9 -gneE4 -gneE7 gneE3.9"/>
    </vehicle>
    <vehicle id="1_78" depart="109.40" departLane="random" departPos="base" departSpeed="random">
        <route edges="gneE0 gneE6 gneE3.9"/>
    </vehicle>
    <vehicle id="1_79" depart="110.80" departLane="random" departPos="base" departSpeed="random">
        <route edges="-gneE2.9 gneE5 -gneE0"/>
    </vehicle>
    <vehicle id="1_80" depart="112.20" departLane="random" departPos="base" departSpeed="random">
        <route edges="-gneE1.23 -gneE7 gneE3.9"/>
    </vehicle>
    <vehicle id="1_84" depart="117.80" departLane="random" departPos="base" departSpeed="random">
        <route edges="-gneE2.9 -gneE4 -gneE7 gneE3.9"/>
    </vehicle>
    <vehicle id="1_86" depart="120.60" departLane="random" departPos="base" departSpeed="random">
        <route edges="gneE0 -gneE5 -gneE4 gneE1.23"/>
    </vehicle>
    <vehicle id="1_89" depart="124.80" departLane="random" departPos="base" departSpeed="random">
        <route edges="-gneE3.9 -gneE6 -gneE5 -gneE4 -gneE7 gneE3.9"/>
    </vehicle>
    <vehicle id="1_90" depart="126.20" departLane="random" departPos="base" departSpeed="random">
        <route edges="gneE0 -gneE5 gneE2.9"/>
    </vehicle>
    <vehicle id="1_91" depart="127.60" departLane="random" departPos="base" departSpeed="random">
        <route edges="-gneE1.23 -gneE7 gneE3.9"/>
    </vehicle>
    <vehicle id="1_92" depart="129.00" departLane="random" departPos="base" departSpeed="random">
        <route edges="-gneE1.23 -gneE7 gneE3.9"/>
    </vehicle>
    <vehicle id="1_93" depart="130.40" departLane="random" departPos="base" departSpeed="random">
        <route edges="-gneE3.9 -gneE6 -gneE5 -gneE4 -gneE7 gneE3.9"/>
    </vehicle>
    <vehicle id="1_96" depart="134.60" departLane="random" departPos="base" departSpeed="random">
        <route edges="gneE0 -gneE5 -gneE4 gneE1.23"/>
    </vehicle>
    <vehicle id="1_97" depart="136.00" departLane="random" departPos="base" departSpeed="random">
        <route edges="-gneE1.23 -gneE7 gneE3.9"/>
    </vehicle>
    <vehicle id="1_98" depart="137.40" departLane="random" departPos="base" departSpeed="random">
        <route edges="gneE0 -gneE5 -gneE4 -gneE7 -gneE6 -gneE0"/>
    </vehicle>
    <vehicle id="1_99" depart="138.80" departLane="random" departPos="base" departSpeed="random">
        <route edges="-gneE3.9 -gneE6 -gneE5 -gneE4 -gneE7 gneE3.9"/>
    </vehicle>
    <vehicle id="1_100" depart="140.20" departLane="random" departPos="base" departSpeed="random">
        <route edges="-gneE1.23 -gneE7 gneE3.9"/>
    </vehicle>
    <vehicle id="1_101" depart="141.60" departLane="random" departPos="base" departSpeed="random">
        <route edges="gneE0 -gneE5 -gneE4 gneE1.23"/>
    </vehicle>
    <vehicle id="1_102" depart="143.00" departLane="random" departPos="base" departSpeed="random">
        <route edges="-gneE2.9 gneE5 -gneE0"/>
    </vehicle>
    <vehicle id="1_103" depart="144.40" departLane="random" departPos="base" departSpeed="random">
        <route edges="-gneE1.23 -gneE7 gneE3.9"/>
    </vehicle>
    <vehicle id="1_104" depart="145.80" departLane="random" departPos="base" departSpeed="random">
        <route edges="-gneE3.9 -gneE6 -gneE5 gneE2.9"/>
    </vehicle>
    <vehicle id="1_105" depart="147.20" departLane="random" departPos="base" departSpeed="random">
        <route edges="-gneE2.9 -gneE4 -gneE7 -gneE6 -gneE5 gneE2.9"/>
    </vehicle>
    <vehicle id="1_106" depart="148.60" departLane="random" departPos="base" departSpeed="random">
        <route edges="-gneE2.9 -gneE4 -gneE7 gneE3.9"/>
    </vehicle>
    <vehicle id="1_107" depart="150.00" departLane="random" departPos="base" departSpeed="random">
        <route edges="gneE0 gneE6 gneE3.9"/>
    </vehicle>
    <vehicle id="1_108" depart="151.40" departLane="random" departPos="base" departSpeed="random">
        <route edges="-gneE1.23 -gneE7 gneE3.9"/>
    </vehicle>
    <vehicle id="1_110" depart="154.20" departLane="random" departPos="base" departSpeed="random">
        <route edges="gneE0 -gneE5 -gneE4 gneE1.23"/>
    </vehicle>
    <vehicle id="1_112" depart="157.00" departLane="random" departPos="base" departSpeed="random">
        <route edges="-gneE2.9 -gneE4 -gneE7 gneE3.9"/>
    </vehicle>
    <vehicle id="1_113" depart="158.40" departLane="random" departPos="base" departSpeed="random">
        <route edges="-gneE3.9 gneE7 gneE1.23"/>
    </vehicle>
    <vehicle id="1_115" depart="161.20" departLane="random" departPos="base" departSpeed="random">
        <route edges="-gneE3.9 -gneE6 -gneE5 -gneE4 -gneE7 gneE3.9"/>
    </vehicle>
    <vehicle id="1_121" depart="169.60" departLane="random" departPos="base" departSpeed="random">
        <route edges="-gneE2.9 -gneE4 -gneE7 gneE3.9"/>
    </vehicle>
    <vehicle id="1_123" depart="172.40" departLane="random" departPos="base" departSpeed="random">
        <route edges="gneE0 -gneE5 -gneE4 -gneE7 -gneE6 -gneE0"/>
    </vehicle>
    <vehicle id="1_124" depart="173.80" departLane="random" departPos="base" departSpeed="random">
        <route edges="-gneE1.23 -gneE7 gneE3.9"/>
    </vehicle>
    <vehicle id="1_126" depart="176.60" departLane="random" departPos="base" departSpeed="random">
        <route edges="-gneE2.9 -gneE4 -gneE7 -gneE6 -gneE5 gneE2.9"/>
    </vehicle>
    <vehicle id="1_128" depart="179.40" departLane="random" departPos="base" departSpeed="random">
        <route edges="-gneE2.9 -gneE4 -gneE7 -gneE6 -gneE5 gneE2.9"/>
    </vehicle>
    <vehicle id="1_129" depart="180.80" departLane="random" departPos="base" departSpeed="random">
        <route edges="-gneE1.23 -gneE7 -gneE6 -gneE0"/>
    </vehicle>
    <vehicle id="1_131" depart="183.60" departLane="random" departPos="base" departSpeed="random">
        <route edges="-gneE3.9 -gneE6 -gneE5 gneE2.9"/>
    </vehicle>
    <vehicle id="1_132" depart="185.00" departLane="random" departPos="base" departSpeed="random">
        <route edges="-gneE3.9 -gneE6 -gneE5 gneE2.9"/>
    </vehicle>
    <vehicle id="1_133" depart="186.40" departLane="random" departPos="base" departSpeed="random">
        <route edges="-gneE2.9 -gneE4 gneE1.23"/>
    </vehicle>
    <vehicle id="1_136" depart="190.60" departLane="random" departPos="base" departSpeed="random">
        <route edges="-gneE2.9 -gneE4 -gneE7 gneE3.9"/>
    </vehicle>
    <vehicle id="1_137" depart="192.00" departLane="random" departPos="base" departSpeed="random">
        <route edges="-gneE1.23 -gneE7 gneE3.9"/>
    </vehicle>
    <vehicle id="1_138" depart="193.40" departLane="random" departPos="base" departSpeed="random">
        <route edges="-gneE3.9 -gneE6 -gneE5 -gneE4 -gneE7 gneE3.9"/>
    </vehicle>
    <vehicle id="1_139" depart="194.80" departLane="random" departPos="base" departSpeed="random">
        <route edges="-gneE2.9 -gneE4 gneE1.23"/>
    </vehicle>
    <vehicle id="1_140" depart="196.20" departLane="random" departPos="base" departSpeed="random">
        <route edges="-gneE2.9 -gneE4 -gneE7 -gneE6 -gneE5 gneE2.9"/>
    </vehicle>
    <vehicle id="1_141" depart="197.60" departLane="random" departPos="base" departSpeed="random">
        <route edges="-gneE1.23 -gneE7 -gneE6 -gneE5 -gneE4 gneE1.23"/>
    </vehicle>
    <vehicle id="1_143" depart="200.40" departLane="random" departPos="base" departSpeed="random">
        <route edges="-gneE3.9 -gneE6 -gneE0"/>
    </vehicle>
    <vehicle id="1_144" depart="201.80" departLane="random" departPos="base" departSpeed="random">
        <route edges="-gneE3.9 -gneE6 -gneE5 gneE2.9"/>
    </vehicle>
    <vehicle id="1_145" depart="203.20" departLane="random" departPos="base" departSpeed="random">
        <route edges="gneE0 -gneE5 -gneE4 -gneE7 -gneE6 -gneE0"/>
    </vehicle>
    <vehicle id="1_146" depart="204.60" departLane="random" departPos="base" departSpeed="random">
        <route edges="-gneE1.23 gneE4 gneE2.9"/>
    </vehicle>
    <vehicle id="1_147" depart="206.00" departLane="random" departPos="base" departSpeed="random">
        <route edges="gneE0 -gneE5 -gneE4 -gneE7 -gneE6 -gneE0"/>
    </vehicle>
    <vehicle id="1_148" depart="207.40" departLane="random" departPos="base" departSpeed="random">
        <route edges="gneE0 gneE6 gneE3.9"/>
    </vehicle>
    <vehicle id="1_149" depart="208.80" departLane="random" departPos="base" departSpeed="random">
        <route edges="-gneE3.9 -gneE6 -gneE5 -gneE4 -gneE7 gneE3.9"/>
    </vehicle>
    <vehicle id="1_151" depart="211.60" departLane="random" departPos="base" departSpeed="random">
        <route edges="-gneE2.9 -gneE4 -gneE7 -gneE6 -gneE5 gneE2.9"/>
    </vehicle>
    <vehicle id="1_152" depart="213.00" departLane="random" departPos="base" departSpeed="random">
        <route edges="-gneE1.23 -gneE7 gneE3.9"/>
    </vehicle>
    <vehicle id="1_153" depart="214.40" departLane="random" departPos="base" departSpeed="random">
        <route edges="-gneE3.9 gneE7 gneE1.23"/>
    </vehicle>
    <vehicle id="1_155" depart="217.20" departLane="random" departPos="base" departSpeed="random">
        <route edges="-gneE3.9 -gneE6 -gneE5 -gneE4 -gneE7 gneE3.9"/>
    </vehicle>
    <vehicle id="1_157" depart="220.00" departLane="random" departPos="base" departSpeed="random">
        <route edges="gneE0 -gneE5 gneE2.9"/>
    </vehicle>
    <vehicle id="1_158" depart="221.40" departLane="random" departPos="base" departSpeed="random">
        <route edges="-gneE2.9 gneE5 -gneE0"/>
    </vehicle>
    <vehicle id="1_159" depart="222.80" departLane="random" departPos="base" departSpeed="random">
        <route edges="-gneE3.9 -gneE6 -gneE5 -gneE4 -gneE7 gneE3.9"/>
    </vehicle>
    <vehicle id="1_162" depart="227.00" departLane="random" departPos="base" departSpeed="random">
        <route edges="gneE0 -gneE5 gneE2.9"/>
    </vehicle>
    <vehicle id="1_166" depart="232.60" departLane="random" departPos="base" departSpeed="random">
        <route edges="-gneE2.9 gneE5 -gneE0"/>
    </vehicle>
    <vehicle id="1_168" depart="235.40" departLane="random" departPos="base" departSpeed="random">
        <route edges="-gneE1.23 gneE4 gneE2.9"/>
    </vehicle>
    <vehicle id="1_170" depart="238.20" departLane="random" departPos="base" departSpeed="random">
        <route edges="gneE0 gneE6 gneE3.9"/>
    </vehicle>
    <vehicle id="1_171" depart="239.60" departLane="random" departPos="base" departSpeed="random">
        <route edges="-gneE2.9 -gneE4 gneE1.23"/>
    </vehicle>
    <vehicle id="1_172" depart="241.00" departLane="random" departPos="base" departSpeed="random">
        <route edges="gneE0 -gneE5 -gneE4 -gneE7 -gneE6 -gneE0"/>
    </vehicle>
    <vehicle id="1_175" depart="245.20" departLane="random" departPos="base" departSpeed="random">
        <route edges="gneE0 gneE6 gneE3.9"/>
    </vehicle>
    <vehicle id="1_176" depart="246.60" departLane="random" departPos="base" departSpeed="random">
        <route edges="-gneE2.9 -gneE4 -gneE7 gneE3.9"/>
    </vehicle>
    <vehicle id="1_179" depart="250.80" departLane="random" departPos="base" departSpeed="random">
        <route edges="-gneE1.23 -gneE7 -gneE6 -gneE5 -gneE4 gneE1.23"/>
    </vehicle>
    <vehicle id="1_180" depart="252.20" departLane="random" departPos="base" departSpeed="random">
        <route edges="gneE0 gneE6 gneE3.9"/>
    </vehicle>
    <vehicle id="1_181" depart="253.60" departLane="random" departPos="base" departSpeed="random">
        <route edges="-gneE1.23 -gneE7 -gneE6 -gneE0"/>
    </vehicle>
    <vehicle id="1_182" depart="255.00" departLane="random" departPos="base" departSpeed="random">
        <route edges="gneE0 -gneE5 -gneE4 gneE1.23"/>
    </vehicle>
    <vehicle id="1_183" depart="256.40" departLane="random" departPos="base" departSpeed="random">
        <route edges="-gneE2.9 gneE5 -gneE0"/>
    </vehicle>
    <vehicle id="1_189" depart="264.80" departLane="random" departPos="base" departSpeed="random">
        <route edges="-gneE3.9 -gneE6 -gneE0"/>
    </vehicle>
    <vehicle id="1_190" depart="266.20" departLane="random" departPos="base" departSpeed="random">
        <route edges="-gneE3.9 -gneE6 -gneE5 -gneE4 -gneE7 gneE3.9"/>
    </vehicle>
    <vehicle id="1_191" depart="267.60" departLane="random" departPos="base" departSpeed="random">
        <route edges="-gneE3.9 -gneE6 -gneE0"/>
    </vehicle>
    <vehicle id="1_192" depart="269.00" departLane="random" departPos="base" departSpeed="random">
        <route edges="-gneE1.23 gneE4 gneE2.9"/>
    </vehicle>
    <vehicle id="1_193" depart="270.40" departLane="random" departPos="base" departSpeed="random">
        <route edges="-gneE3.9 -gneE6 -gneE5 -gneE4 -gneE7 gneE3.9"/>
    </vehicle>
    <vehicle id="1_195" depart="273.20" departLane="random" departPos="base" departSpeed="random">
        <route edges="-gneE2.9 -gneE4 -gneE7 -gneE6 -gneE5 gneE2.9"/>
    </vehicle>
    <vehicle id="1_196" depart="274.60" departLane="random" departPos="base" departSpeed="random">
        <route edges="-gneE1.23 -gneE7 -gneE6 -gneE5 -gneE4 gneE1.23"/>
    </vehicle>
    <vehicle id="1_197" depart="276.00" departLane="random" departPos="base" departSpeed="random">
        <route edges="-gneE1.23 -gneE7 -gneE6 -gneE0"/>
    </vehicle>
    <vehicle id="1_199" depart="278.80" departLane="random" departPos="base" departSpeed="random">
        <route edges="-gneE2.9 -gneE4 gneE1.23"/>
    </vehicle>
    <vehicle id="1_201" depart="281.60" departLane="random" departPos="base" departSpeed="random">
        <route edges="-gneE2.9 -gneE4 -gneE7 -gneE6 -gneE5 gneE2.9"/>
    </vehicle>
    <vehicle id="1_202" depart="283.00" departLane="random" departPos="base" departSpeed="random">
        <route edges="-gneE2.9 -gneE4 -gneE7 -gneE6 -gneE5 gneE2.9"/>
    </vehicle>
    <vehicle id="1_203" depart="284.40" departLane="random" departPos="base" departSpeed="random">
        <route edges="-gneE1.23 gneE4 gneE2.9"/>
    </vehicle>
    <vehicle id="1_204" depart="285.80" departLane="random" departPos="base" departSpeed="random">
        <route edges="-gneE2.9 gneE5 -gneE0"/>
    </vehicle>
    <vehicle id="1_205" depart="287.20" departLane="random" departPos="base" departSpeed="random">
        <route edges="-gneE2.9 gneE5 -gneE0"/>
    </vehicle>
    <vehicle id="1_206" depart="288.60" departLane="random" departPos="base" departSpeed="random">
        <route edges="-gneE2.9 -gneE4 gneE1.23"/>
    </vehicle>
    <vehicle id="1_207" depart="290.00" departLane="random" departPos="base" departSpeed="random">
        <route edges="gneE0 -gneE5 gneE2.9"/>
    </vehicle>
    <vehicle id="1_208" depart="291.40" departLane="random" departPos="base" departSpeed="random">
        <route edges="-gneE2.9 gneE5 -gneE0"/>
    </vehicle>
    <vehicle id="1_209" depart="292.80" departLane="random" departPos="base" departSpeed="random">
        <route edges="-gneE1.23 gneE4 gneE2.9"/>
    </vehicle>
    <vehicle id="1_215" depart="301.20" departLane="random" departPos="base" departSpeed="random">
        <route edges="-gneE3.9 -gneE6 -gneE5 gneE2.9"/>
    </vehicle>
    <vehicle id="1_216" depart="302.60" departLane="random" departPos="base" departSpeed="random">
        <route edges="-gneE3.9 -gneE6 -gneE0"/>
    </vehicle>
    <vehicle id="1_217" depart="304.00" departLane="random" departPos="base" departSpeed="random">
        <route edges="-gneE3.9 -gneE6 -gneE5 gneE2.9"/>
    </vehicle>
    <vehicle id="1_219" depart="306.80" departLane="random" departPos="base" departSpeed="random">
        <route edges="-gneE2.9 -gneE4 -gneE7 gneE3.9"/>
    </vehicle>
    <vehicle id="1_220" depart="308.20" departLane="random" departPos="base" departSpeed="random">
        <route edges="-gneE2.9 -gneE4 gneE1.23"/>
    </vehicle>