<?xml version="1.0" encoding="UTF-8"?>

<!-- generated on Mon Oct 22 00:33:44 2018 by SUMO duarouter Version UNKNOWN
<configuration xmlns:xsi="http://www.w3.org/2001/XMLSchema-instance" xsi:noNamespaceSchemaLocation="http://sumo.dlr.de/xsd/duarouterConfiguration.xsd">

    <input>
        <net-file value="roundabout.net.xml"/>
        <route-files value="trips.trips.xml"/>
    </input>

    <output>
        <output-file value="temp0.rou.xml"/>
        <alternatives-output value="temp0.rou.alt.xml"/>
    </output>

    <processing>
        <ignore-errors value="true"/>
    </processing>

    <time>
        <begin value="0"/>
        <end value="0.1"/>
    </time>

    <report>
        <no-warnings value="true"/>
        <no-step-log value="true"/>
    </report>

</configuration>
-->

<routes xmlns:xsi="http://www.w3.org/2001/XMLSchema-instance" xsi:noNamespaceSchemaLocation="http://sumo.dlr.de/xsd/routes_file.xsd">
    <vType id="EgoCar" color="0,1,0"/>
    <vehicle id="ego" depart="0.00" departLane="random" departPos="random" departSpeed="random" type="EgoCar">
        <route edges="-gneE7 -gneE6 -gneE5 gneE2.9"/>
    </vehicle>
    <vehicle id="1" depart="0.00" departLane="random" departPos="random_free" departSpeed="random">
        <route edges="gneE6 gneE7 gneE4"/>
    </vehicle>
    <vehicle id="2" depart="0.00" departLane="random" departPos="random_free" departSpeed="random">
        <route edges="-gneE6 -gneE5 -gneE4 -gneE7 gneE3.9"/>
    </vehicle>
    <vehicle id="3" depart="0.01" departLane="random" departPos="random_free" departSpeed="random">
        <route edges="-gneE2.9 -gneE4 -gneE7"/>
    </vehicle>
    <vehicle id="4" depart="0.01" departLane="random" departPos="random_free" departSpeed="random">
        <route edges="gneE0 -gneE5 gneE2.9"/>
    </vehicle>
    <vehicle id="5" depart="0.01" departLane="random" departPos="random_free" departSpeed="random">
        <route edges="-gneE2.9 -gneE4 -gneE7 gneE3.9"/>
    </vehicle>
    <vehicle id="6" depart="0.01" departLane="random" departPos="random_free" departSpeed="random">
        <route edges="-gneE1.23 -gneE7 -gneE6 -gneE5 -gneE4 gneE1.23"/>
    </vehicle>
    <vehicle id="7" depart="0.01" departLane="random" departPos="random_free" departSpeed="random">
        <route edges="-gneE2.9 -gneE4 -gneE7 gneE3.9"/>
    </vehicle>
    <vehicle id="8" depart="0.02" departLane="random" departPos="random_free" departSpeed="random">
        <route edges="-gneE1.23 -gneE7 -gneE6"/>
    </vehicle>
    <vehicle id="9" depart="0.02" departLane="random" departPos="random_free" departSpeed="random">
        <route edges="-gneE2.9 -gneE4 gneE1.23"/>
    </vehicle>
    <vehicle id="10" depart="0.02" departLane="random" departPos="random_free" departSpeed="random">
        <route edges="-gneE1.23 -gneE7 -gneE6 -gneE5 -gneE4 gneE1.23"/>
    </vehicle>
    <vehicle id="11" depart="0.02" departLane="random" departPos="random_free" departSpeed="random">
        <route edges="gneE0 -gneE5 -gneE4 gneE1.23"/>
    </vehicle>
    <vehicle id="12" depart="0.02" departLane="random" departPos="random_free" departSpeed="random">
        <route edges="gneE0 -gneE5 -gneE4 -gneE7 -gneE6 -gneE0"/>
    </vehicle>
    <vehicle id="13" depart="0.03" departLane="random" departPos="random_free" departSpeed="random">
        <route edges="gneE0 -gneE5 -gneE4 gneE1.23"/>
    </vehicle>
    <vehicle id="14" depart="0.03" departLane="random" departPos="random_free" departSpeed="random">
        <route edges="-gneE3.9 -gneE6 -gneE0"/>
    </vehicle>
    <vehicle id="15" depart="0.03" departLane="random" departPos="random_free" departSpeed="random">
        <route edges="gneE0 gneE6"/>
    </vehicle>
    <vehicle id="16" depart="0.03" departLane="random" departPos="random_free" departSpeed="random">
        <route edges="-gneE1.23 -gneE7 -gneE6 -gneE0"/>
    </vehicle>
    <vehicle id="17" depart="0.03" departLane="random" departPos="random_free" departSpeed="random">
        <route edges="-gneE2.9 -gneE4 -gneE7 gneE3.9"/>
    </vehicle>
    <vehicle id="18" depart="0.04" departLane="random" departPos="random_free" departSpeed="random">
        <route edges="-gneE2.9 -gneE4 -gneE7 gneE3.9"/>
    </vehicle>
    <vehicle id="19" depart="0.04" departLane="random" departPos="random_free" departSpeed="random">
        <route edges="gneE4 gneE5 gneE6 gneE7 gneE1.23"/>
    </vehicle>
    <vehicle id="20" depart="0.04" departLane="random" departPos="random_free" departSpeed="random">
        <route edges="-gneE2.9 -gneE4 -gneE7"/>
    </vehicle>
    <vehicle id="21" depart="0.04" departLane="random" departPos="random_free" departSpeed="random">
        <route edges="-gneE6 -gneE5 gneE2.9"/>
    </vehicle>
    <vehicle id="22" depart="0.04" departLane="random" departPos="random_free" departSpeed="random">
        <route edges="-gneE3.9 -gneE6 -gneE5 gneE2.9"/>
    </vehicle>
    <vehicle id="23" depart="0.05" departLane="random" departPos="random_free" departSpeed="random">
        <route edges="-gneE6 -gneE5 -gneE4 gneE1.23"/>
    </vehicle>
    <vehicle id="24" depart="0.05" departLane="random" departPos="random_free" departSpeed="random">
        <route edges="gneE0 -gneE5 -gneE4 -gneE7 -gneE6 -gneE0"/>
    </vehicle>
    <vehicle id="25" depart="0.05" departLane="random" departPos="random_free" departSpeed="random">
        <route edges="-gneE1.23 -gneE7 -gneE6 -gneE5 -gneE4 gneE1.23"/>
    </vehicle>
    <vehicle id="26" depart="0.05" departLane="random" departPos="random_free" departSpeed="random">
        <route edges="gneE0 -gneE5 -gneE4 gneE1.23"/>
    </vehicle>
    <vehicle id="27" depart="0.05" departLane="random" departPos="random_free" departSpeed="random">
        <route edges="-gneE3.9 -gneE6 -gneE5 -gneE4 -gneE7 gneE3.9"/>
    </vehicle>
    <vehicle id="28" depart="0.06" departLane="random" departPos="random_free" departSpeed="random">
        <route edges="gneE0 -gneE5 -gneE4 -gneE7 -gneE6 -gneE0"/>
    </vehicle>
    <vehicle id="29" depart="0.06" departLane="random" departPos="random_free" departSpeed="random">
        <route edges="-gneE3.9 -gneE6 -gneE5 -gneE4 -gneE7 gneE3.9"/>
    </vehicle>
    <vehicle id="30" depart="0.06" departLane="random" departPos="random_free" departSpeed="random">
        <route edges="gneE6 gneE7 gneE4 gneE5 -gneE0"/>
    </vehicle>
    <vehicle id="31" depart="0.06" departLane="random" departPos="random_free" departSpeed="random">
        <route edges="gneE0 -gneE5 gneE2.9"/>
    </vehicle>
    <vehicle id="32" depart="0.06" departLane="random" departPos="random_free" departSpeed="random">
        <route edges="-gneE1.23 -gneE7 -gneE6 -gneE5"/>
    </vehicle>
    <vehicle id="33" depart="0.07" departLane="random" departPos="random_free" departSpeed="random">
        <route edges="gneE6 gneE7 gneE4 gneE2.9"/>
    </vehicle>
    <vehicle id="34" depart="0.07" departLane="random" departPos="random_free" departSpeed="random">
        <route edges="-gneE3.9 gneE7 gneE4 gneE5"/>
    </vehicle>
    <vehicle id="35" depart="0.07" departLane="random" departPos="random_free" departSpeed="random">
        <route edges="gneE0 -gneE5 -gneE4 -gneE7 -gneE6 -gneE0"/>
    </vehicle>
    <vehicle id="36" depart="0.07" departLane="random" departPos="random_free" departSpeed="random">
        <route edges="-gneE3.9 gneE7 gneE1.23"/>
    </vehicle>
    <vehicle id="37" depart="0.07" departLane="random" departPos="random_free" departSpeed="random">
        <route edges="gneE5 gneE6 gneE7 gneE4 gneE2.9"/>
    </vehicle>
    <vehicle id="38" depart="0.08" departLane="random" departPos="random_free" departSpeed="random">
        <route edges="gneE0 gneE6 gneE7 gneE4 gneE5"/>
    </vehicle>
    <vehicle id="39" depart="0.08" departLane="random" departPos="random_free" departSpeed="random">
        <route edges="-gneE3.9 gneE7 gneE4"/>
    </vehicle>
    <vehicle id="40" depart="0.08" departLane="random" departPos="random_free" departSpeed="random">
        <route edges="-gneE1.23 -gneE7 gneE3.9"/>
    </vehicle>
    <vehicle id="41" depart="0.08" departLane="random" departPos="random_free" departSpeed="random">
        <route edges="gneE0 -gneE5 -gneE4 gneE1.23"/>
    </vehicle>
    <vehicle id="43" depart="0.09" departLane="random" departPos="random_free" departSpeed="random">
        <route edges="gneE0 -gneE5 -gneE4 gneE1.23"/>
    </vehicle>
    <vehicle id="44" depart="0.09" departLane="random" departPos="random_free" departSpeed="random">
        <route edges="-gneE2.9 -gneE4 -gneE7 gneE3.9"/>
    </vehicle>
    <vehicle id="45" depart="0.09" departLane="random" departPos="random_free" departSpeed="random">
        <route edges="gneE0 -gneE5 -gneE4 gneE1.23"/>
    </vehicle>
    <vehicle id="46" depart="0.09" departLane="random" departPos="random_free" departSpeed="random">
        <route edges="-gneE2.9 gneE5 -gneE0"/>
    </vehicle>
    <vehicle id="47" depart="0.09" departLane="random" departPos="random_free" departSpeed="random">
        <route edges="-gneE3.9 gneE7 gneE1.23"/>
    </vehicle>
    <vehicle id="1_0" depart="0.20" departLane="random" departPos="base" departSpeed="random">
        <route edges="gneE0 -gneE5 -gneE4 -gneE7 -gneE6"/>
    </vehicle>
    <vehicle id="1_1" depart="2.00" departLane="random" departPos="base" departSpeed="random">
        <route edges="-gneE3.9 -gneE6 -gneE0"/>
    </vehicle>
    <vehicle id="1_4" depart="7.40" departLane="random" departPos="base" departSpeed="random">
        <route edges="-gneE1.23 -gneE7 -gneE6 -gneE5 -gneE4 gneE1.23"/>
    </vehicle>
    <vehicle id="1_5" depart="9.20" departLane="random" departPos="base" departSpeed="random">
        <route edges="-gneE2.9 -gneE4 gneE1.23"/>
    </vehicle>
    <vehicle id="1_6" depart="11.00" departLane="random" departPos="base" departSpeed="random">
        <route edges="-gneE1.23 -gneE7 gneE3.9"/>
    </vehicle>
    <vehicle id="1_8" depart="14.60" departLane="random" departPos="base" departSpeed="random">
        <route edges="gneE0 -gneE5 -gneE4 -gneE7 -gneE6 -gneE0"/>
    </vehicle>
    <vehicle id="1_9" depart="16.40" departLane="random" departPos="base" departSpeed="random">
        <route edges="gneE0 -gneE5 -gneE4 gneE1.23"/>
    </vehicle>
    <vehicle id="1_10" depart="18.20" departLane="random" departPos="base" departSpeed="random">
        <route edges="-gneE2.9 gneE5 -gneE0"/>
    </vehicle>
    <vehicle id="1_12" depart="21.80" departLane="random" departPos="base" departSpeed="random">
        <route edges="-gneE1.23 -gneE7 -gneE6 -gneE0"/>
    </vehicle>
    <vehicle id="1_13" depart="23.60" departLane="random" departPos="base" departSpeed="random">
        <route edges="gneE0 -gneE5 -gneE4 -gneE7 -gneE6 -gneE0"/>
    </vehicle>
    <vehicle id="1_14" depart="25.40" departLane="random" departPos="base" departSpeed="random">
        <route edges="-gneE3.9 -gneE6 -gneE5 -gneE4 -gneE7 gneE3.9"/>
    </vehicle>
    <vehicle id="1_17" depart="30.80" departLane="random" departPos="base" departSpeed="random">
        <route edges="gneE0 gneE6 gneE3.9"/>
    </vehicle>
    <vehicle id="1_18" depart="32.60" departLane="random" departPos="base" departSpeed="random">
        <route edges="-gneE2.9 -gneE4 gneE1.23"/>
    </vehicle>
    <vehicle id="1_20" depart="36.20" departLane="random" departPos="base" departSpeed="random">
        <route edges="-gneE2.9 gneE5 -gneE0"/>
    </vehicle>
    <vehicle id="1_21" depart="38.00" departLane="random" departPos="base" departSpeed="random">
        <route edges="gneE0 gneE6 gneE3.9"/>
    </vehicle>
    <vehicle id="1_22" depart="39.80" departLane="random" departPos="base" departSpeed="random">
        <route edges="-gneE1.23 gneE4 gneE2.9"/>
    </vehicle>
    <vehicle id="1_24" depart="43.40" departLane="random" departPos="base" departSpeed="random">
        <route edges="gneE0 -gneE5 gneE2.9"/>
    </vehicle>
    <vehicle id="1_26" depart="47.00" departLane="random" departPos="base" departSpeed="random">
        <route edges="-gneE1.23 -gneE7 -gneE6 -gneE0"/>
    </vehicle>
    <vehicle id="1_27" depart="48.80" departLane="random" departPos="base" departSpeed="random">
        <route edges="-gneE3.9 gneE7 gneE1.23"/>
    </vehicle>
    <vehicle id="1_28" depart="50.60" departLane="random" departPos="base" departSpeed="random">
        <route edges="gneE0 -gneE5 -gneE4 -gneE7 -gneE6 -gneE0"/>
    </vehicle>
    <vehicle id="1_29" depart="52.40" departLane="random" departPos="base" departSpeed="random">
        <route edges="-gneE1.23 -gneE7 gneE3.9"/>
    </vehicle>
    <vehicle id="1_30" depart="54.20" departLane="random" departPos="base" departSpeed="random">
        <route edges="gneE0 -gneE5 gneE2.9"/>
    </vehicle>
    <vehicle id="1_31" depart="56.00" departLane="random" departPos="base" departSpeed="random">
        <route edges="-gneE2.9 -gneE4 -gneE7 gneE3.9"/>
    </vehicle>
    <vehicle id="1_33" depart="59.60" departLane="random" departPos="base" departSpeed="random">
        <route edges="gneE0 -gneE5 -gneE4 -gneE7 -gneE6 -gneE0"/>
    </vehicle>
    <vehicle id="1_34" depart="61.40" departLane="random" departPos="base" departSpeed="random">
        <route edges="gneE0 gneE6 gneE3.9"/>
    </vehicle>
    <vehicle id="1_35" depart="63.20" departLane="random" departPos="base" departSpeed="random">
        <route edges="-gneE2.9 -gneE4 gneE1.23"/>
    </vehicle>
    <vehicle id="1_36" depart="65.00" departLane="random" departPos="base" departSpeed="random">
        <route edges="-gneE3.9 gneE7 gneE1.23"/>
    </vehicle>
    <vehicle id="1_37" depart="66.80" departLane="random" departPos="base" departSpeed="random">
        <route edges="-gneE3.9 gneE7 gneE1.23"/>
    </vehicle>
    <vehicle id="1_38" depart="68.60" departLane="random" departPos="base" departSpeed="random">
        <route edges="-gneE2.9 -gneE4 -gneE7 -gneE6 -gneE5 gneE2.9"/>
    </vehicle>
    <vehicle id="1_40" depart="72.20" departLane="random" departPos="base" departSpeed="random">
        <route edges="-gneE1.23 -gneE7 -gneE6 -gneE0"/>
    </vehicle>
    <vehicle id="1_41" depart="74.00" departLane="random" departPos="base" departSpeed="random">
        <route edges="-gneE2.9 gneE5 -gneE0"/>
    </vehicle>
    <vehicle id="1_42" depart="75.80" departLane="random" departPos="base" departSpeed="random">
        <route edges="-gneE2.9 -gneE4 -gneE7 -gneE6 -gneE5 gneE2.9"/>
    </vehicle>
    <vehicle id="1_47" depart="84.80" departLane="random" departPos="base" departSpeed="random">
        <route edges="-gneE2.9 gneE5 -gneE0"/>
    </vehicle>
    <vehicle id="1_48" depart="86.60" departLane="random" departPos="base" departSpeed="random">
        <route edges="-gneE1.23 -gneE7 -gneE6 -gneE0"/>
    </vehicle>
    <vehicle id="1_51" depart="92.00" departLane="random" departPos="base" departSpeed="random">
        <route edges="gneE0 -gneE5 -gneE4 -gneE7 -gneE6 -gneE0"/>
    </vehicle>
    <vehicle id="1_52" depart="93.80" departLane="random" departPos="base" departSpeed="random">
        <route edges="-gneE3.9 gneE7 gneE1.23"/>
    </vehicle>
    <vehicle id="1_53" depart="95.60" departLane="random" departPos="base" departSpeed="random">
        <route edges="gneE0 -gneE5 -gneE4 gneE1.23"/>
    </vehicle>
    <vehicle id="1_54" depart="97.40" departLane="random" departPos="base" departSpeed="random">
        <route edges="-gneE1.23 -gneE7 gneE3.9"/>
    </vehicle>
    <vehicle id="1_56" depart="101.00" departLane="random" departPos="base" departSpeed="random">
        <route edges="-gneE3.9 -gneE6 -gneE5 -gneE4 -gneE7 gneE3.9"/>
    </vehicle>
    <vehicle id="1_58" depart="104.60" departLane="random" departPos="base" departSpeed="random">
        <route edges="-gneE3.9 -gneE6 -gneE0"/>
    </vehicle>
    <vehicle id="1_59" depart="106.40" departLane="random" departPos="base" departSpeed="random">
        <route edges="-gneE3.9 -gneE6 -gneE5 -gneE4 -gneE7 gneE3.9"/>
    </vehicle>
    <vehicle id="1_62" depart="111.80" departLane="random" departPos="base" departSpeed="random">
        <route edges="-gneE3.9 -gneE6 -gneE5 -gneE4 -gneE7 gneE3.9"/>
    </vehicle>
    <vehicle id="1_63" depart="113.60" departLane="random" departPos="base" departSpeed="random">
        <route edges="-gneE2.9 -gneE4 -gneE7 gneE3.9"/>
    </vehicle>
    <vehicle id="1_64" depart="115.40" departLane="random" departPos="base" departSpeed="random">
        <route edges="-gneE3.9 gneE7 gneE1.23"/>
    </vehicle>
    <vehicle id="1_65" depart="117.20" departLane="random" departPos="base" departSpeed="random">
        <route edges="-gneE3.9 gneE7 gneE1.23"/>
    </vehicle>
    <vehicle id="1_66" depart="119.00" departLane="random" departPos="base" departSpeed="random">
        <route edges="-gneE2.9 -gneE4 gneE1.23"/>
    </vehicle>
    <vehicle id="1_67" depart="120.80" departLane="random" departPos="base" departSpeed="random">
        <route edges="gneE0 -gneE5 -gneE4 -gneE7 -gneE6 -gneE0"/>
    </vehicle>
    <vehicle id="1_69" depart="124.40" departLane="random" departPos="base" departSpeed="random">
        <route edges="-gneE2.9 -gneE4 gneE1.23"/>
    </vehicle>
    <vehicle id="1_70" depart="126.20" departLane="random" departPos="base" departSpeed="random">
        <route edges="-gneE2.9 -gneE4 -gneE7 gneE3.9"/>
    </vehicle>
    <vehicle id="1_72" depart="129.80" departLane="random" departPos="base" departSpeed="random">
        <route edges="-gneE3.9 -gneE6 -gneE5 gneE2.9"/>
    </vehicle>
    <vehicle id="1_74" depart="133.40" departLane="random" departPos="base" departSpeed="random">
        <route edges="-gneE3.9 gneE7 gneE1.23"/>
    </vehicle>
    <vehicle id="1_75" depart="135.20" departLane="random" departPos="base" departSpeed="random">
        <route edges="-gneE3.9 -gneE6 -gneE5 -gneE4 -gneE7 gneE3.9"/>
    </vehicle>
    <vehicle id="1_78" depart="140.60" departLane="random" departPos="base" departSpeed="random">
        <route edges="gneE0 gneE6 gneE3.9"/>
    </vehicle>
    <vehicle id="1_79" depart="142.40" departLane="random" departPos="base" departSpeed="random">
        <route edges="-gneE2.9 -gneE4 gneE1.23"/>
    </vehicle>
    <vehicle id="1_82" depart="147.80" departLane="random" departPos="base" departSpeed="random">
        <route edges="-gneE2.9 gneE5 -gneE0"/>
    </vehicle>
    <vehicle id="1_83" depart="149.60" departLane="random" departPos="base" departSpeed="random">
        <route edges="-gneE3.9 -gneE6 -gneE5 -gneE4 -gneE7 gneE3.9"/>
    </vehicle>
    <vehicle id="1_84" depart="151.40" departLane="random" departPos="base" departSpeed="random">
        <route edges="-gneE1.23 -gneE7 gneE3.9"/>
    </vehicle>
    <vehicle id="1_86" depart="155.00" departLane="random" departPos="base" departSpeed="random">
        <route edges="gneE0 -gneE5 -gneE4 -gneE7 -gneE6 -gneE0"/>
    </vehicle>
    <vehicle id="1_89" depart="160.40" departLane="random" departPos="base" departSpeed="random">
        <route edges="-gneE3.9 -gneE6 -gneE5 -gneE4 -gneE7 gneE3.9"/>
    </vehicle>
    <vehicle id="1_93" depart="167.60" departLane="random" departPos="base" departSpeed="random">
        <route edges="gneE0 -gneE5 -gneE4 -gneE7 -gneE6 -gneE0"/>
    </vehicle>
    <vehicle id="1_94" depart="169.40" departLane="random" departPos="base" departSpeed="random">
        <route edges="-gneE1.23 -gneE7 -gneE6 -gneE5 -gneE4 gneE1.23"/>
    </vehicle>
    <vehicle id="1_95" depart="171.20" departLane="random" departPos="base" departSpeed="random">
        <route edges="gneE0 gneE6 gneE3.9"/>
    </vehicle>
    <vehicle id="1_96" depart="173.00" departLane="random" departPos="base" departSpeed="random">
        <route edges="-gneE1.23 -gneE7 gneE3.9"/>
    </vehicle>
    <vehicle id="1_97" depart="174.80" departLane="random" departPos="base" departSpeed="random">
        <route edges="-gneE1.23 -gneE7 -gneE6 -gneE5 -gneE4 gneE1.23"/>
    </vehicle>
    <vehicle id="1_98" depart="176.60" departLane="random" departPos="base" departSpeed="random">
        <route edges="gneE0 -gneE5 gneE2.9"/>
    </vehicle>
    <vehicle id="1_99" depart="178.40" departLane="random" departPos="base" departSpeed="random">
        <route edges="-gneE2.9 gneE5 -gneE0"/>
    </vehicle>
    <vehicle id="1_100" depart="180.20" departLane="random" departPos="base" departSpeed="random">
        <route edges="-gneE1.23 -gneE7 -gneE6 -gneE5 -gneE4 gneE1.23"/>
    </vehicle>
    <vehicle id="1_101" depart="182.00" departLane="random" departPos="base" departSpeed="random">
        <route edges="-gneE1.23 gneE4 gneE2.9"/>
    </vehicle>
    <vehicle id="1_103" depart="185.60" departLane="random" departPos="base" departSpeed="random">
        <route edges="gneE0 gneE6 gneE3.9"/>
    </vehicle>
    <vehicle id="1_104" depart="187.40" departLane="random" departPos="base" departSpeed="random">
        <route edges="-gneE1.23 -gneE7 gneE3.9"/>
    </vehicle>
    <vehicle id="1_105" depart="189.20" departLane="random" departPos="base" departSpeed="random">
        <route edges="-gneE1.23 gneE4 gneE2.9"/>
    </vehicle>
    <vehicle id="1_107" depart="192.80" departLane="random" departPos="base" departSpeed="random">
        <route edges="-gneE3.9 -gneE6 -gneE5 -gneE4 -gneE7 gneE3.9"/>
    </vehicle>
    <vehicle id="1_108" depart="194.60" departLane="random" departPos="base" departSpeed="random">
        <route edges="-gneE2.9 -gneE4 -gneE7 -gneE6 -gneE5 gneE2.9"/>
    </vehicle>
    <vehicle id="1_111" depart="200.00" departLane="random" departPos="base" departSpeed="random">
        <route edges="gneE0 -gneE5 -gneE4 -gneE7 -gneE6 -gneE0"/>
    </vehicle>
    <vehicle id="1_112" depart="201.80" departLane="random" departPos="base" departSpeed="random">
        <route edges="gneE0 -gneE5 -gneE4 gneE1.23"/>
    </vehicle>
    <vehicle id="1_113" depart="203.60" departLane="random" departPos="base" departSpeed="random">
        <route edges="-gneE3.9 gneE7 gneE1.23"/>
    </vehicle>
    <vehicle id="1_114" depart="205.40" departLane="random" departPos="base" departSpeed="random">
        <route edges="-gneE1.23 -gneE7 gneE3.9"/>
    </vehicle>
    <vehicle id="1_115" depart="207.20" departLane="random" departPos="base" departSpeed="random">
        <route edges="-gneE1.23 -gneE7 -gneE6 -gneE5 -gneE4 gneE1.23"/>
    </vehicle>
    <vehicle id="1_120" depart="216.20" departLane="random" departPos="base" departSpeed="random">
        <route edges="-gneE1.23 -gneE7 -gneE6 -gneE5 -gneE4 gneE1.23"/>
    </vehicle>
    <vehicle id="1_121" depart="218.00" departLane="random" departPos="base" departSpeed="random">
        <route edges="-gneE3.9 -gneE6 -gneE5 gneE2.9"/>
    </vehicle>
    <vehicle id="1_122" depart="219.80" departLane="random" departPos="base" departSpeed="random">
        <route edges="-gneE3.9 -gneE6 -gneE5 -gneE4 -gneE7 gneE3.9"/>
    </vehicle>
    <vehicle id="1_123" depart="221.60" departLane="random" departPos="base" departSpeed="random">
        <route edges="-gneE3.9 gneE7 gneE1.23"/>
    </vehicle>
    <vehicle id="1_124" depart="223.40" departLane="random" departPos="base" departSpeed="random">
        <route edges="-gneE2.9 -gneE4 -gneE7 -gneE6 -gneE5 gneE2.9"/>
    </vehicle>
    <vehicle id="1_125" depart="225.20" departLane="random" departPos="base" departSpeed="random">
        <route edges="-gneE2.9 gneE5 -gneE0"/>
    </vehicle>
    <vehicle id="1_127" depart="228.80" departLane="random" departPos="base" departSpeed="random">
        <route edges="-gneE2.9 -gneE4 gneE1.23"/>
    </vehicle>
    <vehicle id="1_128" depart="230.60" departLane="random" departPos="base" departSpeed="random">
        <route edges="-gneE2.9 gneE5 -gneE0"/>
    </vehicle>
    <vehicle id="1_129" depart="232.40" departLane="random" departPos="base" departSpeed="random">
        <route edges="-gneE2.9 -gneE4 -gneE7 gneE3.9"/>
    </vehicle>
    <vehicle id="1_130" depart="234.20" departLane="random" departPos="base" departSpeed="random">
        <route edges="-gneE2.9 -gneE4 -gneE7 gneE3.9"/>
    </vehicle>
    <vehicle id="1_131" depart="236.00" departLane="random" departPos="base" departSpeed="random">
        <route edges="gneE0 -gneE5 -gneE4 gneE1.23"/>
    </vehicle>
    <vehicle id="1_133" depart="239.60" departLane="random" departPos="base" departSpeed="random">
        <route edges="-gneE1.23 -gneE7 -gneE6 -gneE0"/>
    </vehicle>
    <vehicle id="1_140" depart="252.20" departLane="random" departPos="base" departSpeed="random">
        <route edges="-gneE3.9 -gneE6 -gneE5 -gneE4 -gneE7 gneE3.9"/>
    </vehicle>
    <vehicle id="1_141" depart="254.00" departLane="random" departPos="base" departSpeed="random">
        <route edges="-gneE1.23 -gneE7 -gneE6 -gneE0"/>
    </vehicle>
    <vehicle id="1_142" depart="255.80" departLane="random" departPos="base" departSpeed="random">
        <route edges="-gneE1.23 -gneE7 -gneE6 -gneE0"/>
    </vehicle>
    <vehicle id="1_144" depart="259.40" departLane="random" departPos="base" departSpeed="random">
        <route edges="-gneE2.9 -gneE4 gneE1.23"/>
    </vehicle>
    <vehicle id="1_145" depart="261.20" departLane="random" departPos="base" departSpeed="random">
        <route edges="gneE0 -gneE5 -gneE4 -gneE7 -gneE6 -gneE0"/>
    </vehicle>
    <vehicle id="1_147" depart="264.80" departLane="random" departPos="base" departSpeed="random">
        <route edges="-gneE2.9 -gneE4 -gneE7 -gneE6 -gneE5 gneE2.9"/>
    </vehicle>
    <vehicle id="1_149" depart="268.40" departLane="random" departPos="base" departSpeed="random">
        <route edges="-gneE3.9 -gneE6 -gneE0"/>
    </vehicle>
    <vehicle id="1_150" depart="270.20" departLane="random" departPos="base" departSpeed="random">
        <route edges="-gneE1.23 -gneE7 -gneE6 -gneE5 -gneE4 gneE1.23"/>
    </vehicle>
    <vehicle id="1_151" depart="272.00" departLane="random" departPos="base" departSpeed="random">
        <route edges="-gneE2.9 -gneE4 -gneE7 -gneE6 -gneE5 gneE2.9"/>
    </vehicle>
    <vehicle id="1_152" depart="273.80" departLane="random" departPos="base" departSpeed="random">
        <route edges="gneE0 -gneE5 gneE2.9"/>
    </vehicle>
    <vehicle id="1_153" depart="275.60" departLane="random" departPos="base" departSpeed="random">
        <route edges="-gneE3.9 gneE7 gneE1.23"/>
    </vehicle>
    <vehicle id="1_154" depart="277.40" departLane="random" departPos="base" departSpeed="random">
        <route edges="-gneE3.9 -gneE6 -gneE5 gneE2.9"/>
    </vehicle>
    <vehicle id="1_155" depart="279.20" departLane="random" departPos="base" departSpeed="random">
        <route edges="-gneE3.9 -gneE6 -gneE5 gneE2.9"/>
    </vehicle>
    <vehicle id="1_156" depart="281.00" departLane="random" departPos="base" departSpeed="random">
        <route edges="gneE0 -gneE5 -gneE4 gneE1.23"/>
    </vehicle>
    <vehicle id="1_157" depart="282.80" departLane="random" departPos="base" departSpeed="random">
        <route edges="-gneE2.9 -gneE4 -gneE7 -gneE6 -gneE5 gneE2.9"/>
    </vehicle>
    <vehicle id="1_158" depart="284.60" departLane="random" departPos="base" departSpeed="random">
        <route edges="-gneE2.9 gneE5 -gneE0"/>
    </vehicle>
    <vehicle id="1_159" depart="286.40" departLane="random" departPos="base" departSpeed="random">
        <route edges="-gneE2.9 -gneE4 -gneE7 -gneE6 -gneE5 gneE2.9"/>
    </vehicle>
    <vehicle id="1_160" depart="288.20" departLane="random" departPos="base" departSpeed="random">
        <route edges="-gneE2.9 gneE5 -gneE0"/>
    </vehicle>
    <vehicle id="1_161" depart="290.00" departLane="random" departPos="base" departSpeed="random">
        <route edges="gneE0 -gneE5 gneE2.9"/>
    </vehicle>
    <vehicle id="1_162" depart="291.80" departLane="random" departPos="base" departSpeed="random">
        <route edges="-gneE1.23 gneE4 gneE2.9"/>
    </vehicle>
    <vehicle id="1_163" depart="293.60" departLane="random" departPos="base" departSpeed="random">
        <route edges="-gneE3.9 gneE7 gneE1.23"/>
    </vehicle>
    <vehicle id="1_164" depart="295.40" departLane="random" departPos="base" departSpeed="random">
        <route edges="-gneE2.9 -gneE4 gneE1.23"/>
    </vehicle>
    <vehicle id="1_165" depart="297.20" departLane="random" departPos="base" departSpeed="random">
        <route edges="gneE0 -gneE5 gneE2.9"/>
    </vehicle>
    <vehicle id="1_166" depart="299.00" departLane="random" departPos="base" departSpeed="random">
        <route edges="-gneE1.23 -gneE7 -gneE6 -gneE0"/>
    </vehicle>
    <vehicle id="1_167" depart="300.80" departLane="random" departPos="base" departSpeed="random">
        <route edges="-gneE2.9 -gneE4 -gneE7 gneE3.9"/>
    </vehicle>
    <vehicle id="1_168" depart="302.60" departLane="random" departPos="base" departSpeed="random">
        <route edges="gneE0 -gneE5 -gneE4 -gneE7 -gneE6 -gneE0"/>
    </vehicle>
    <vehicle id="1_169" depart="304.40" departLane="random" departPos="base" departSpeed="random">
        <route edges="gneE0 -gneE5 -gneE4 -gneE7 -gneE6 -gneE0"/>
    </vehicle>
    <vehicle id="1_172" depart="309.80" departLane="random" departPos="base" departSpeed="random">
        <route edges="-gneE1.23 -gneE7 -gneE6 -gneE5 -gneE4 gneE1.23"/>
    </vehicle>
    <vehicle id="1_173" depart="311.60" departLane="random" departPos="base" departSpeed="random">
        <route edges="-gneE2.9 -gneE4 gneE1.23"/>
    </vehicle>
    <vehicle id="1_174" depart="313.40" departLane="random" departPos="base" departSpeed="random">
        <route edges="-gneE1.23 -gneE7 gneE3.9"/>
    </vehicle>
    <vehicle id="1_175" depart="315.20" departLane="random" departPos="base" departSpeed="random">
        <route edges="-gneE3.9 -gneE6 -gneE5 gneE2.9"/>
    </vehicle>
    <vehicle id="1_176" depart="317.00" departLane="random" departPos="base" departSpeed="random">
        <route edges="-gneE2.9 -gneE4 -gneE7 gneE3.9"/>
    </vehicle>
    <vehicle id="1_177" depart="318.80" departLane="random" departPos="base" departSpeed="random">
        <route edges="-gneE1.23 -gneE7 -gneE6 -gneE5 -gneE4 gneE1.23"/>
    </vehicle>
    <vehicle id="1_178" depart="320.60" departLane="random" departPos="base" departSpeed="random">